@<TRIPOS>MOLECULE
ZINC000095546207
111   116   1     0     0
SMALL
USER_CHARGES
@<TRIPOS>ATOM
1      C1     -2.1416    2.1069    0.0963 C.3      1 ZINC000095546207   -0.1500
2      C2     -1.9719    0.6482    0.4347 C.2      1 ZINC000095546207    0.4700
3      O3     -2.4950    0.1927    1.4240 O.2      1 ZINC000095546207   -0.5200
4      O4     -1.2396   -0.1450   -0.3630 O.3      1 ZINC000095546207   -0.3100
5      C5     -1.0574   -1.5255    0.0643 C.3      1 ZINC000095546207    0.0900
6      C6      0.3015   -2.0828   -0.3766 C.3      1 ZINC000095546207    0.0600
7      O7      0.7994   -1.4268    0.8121 O.3      1 ZINC000095546207   -0.3700
8      C8     -0.4729   -1.5852    1.4776 C.3      1 ZINC000095546207    0.0500
9      H9     -0.7526   -0.7518    2.1161 H        1 ZINC000095546207    0.1300
10     C10    -0.6080   -2.9541    2.1395 C.3      1 ZINC000095546207   -0.1600
11     C11    -2.0633   -3.3932    2.0753 C.3      1 ZINC000095546207    0.1300
12     H12    -2.6891   -2.6523    2.5716 H        1 ZINC000095546207    0.0600
13     O13    -2.2045   -4.6476    2.7448 O.3      1 ZINC000095546207   -0.5500
14     C14    -2.5569   -3.5527    0.6453 C.3      1 ZINC000095546207   -0.0900
15     C15    -1.8342   -4.7800    0.0915 C.3      1 ZINC000095546207   -0.1600
16     C16    -4.0445   -3.8998    0.7162 C.2      1 ZINC000095546207    0.3400
17     O17    -4.4404   -4.9481    1.1907 O.2      1 ZINC000095546207   -0.3900
18     C18    -5.0056   -2.8494    0.1741 C.3      1 ZINC000095546207    0.1100
19     H19    -4.7852   -1.9060    0.6677 H        1 ZINC000095546207    0.1000
20     O20    -6.3493   -3.2199    0.5106 O.3      1 ZINC000095546207   -0.5400
21     C21    -4.8519   -2.7848   -1.3043 C.2      1 ZINC000095546207   -0.1100
22     C22    -4.9509   -3.8037   -2.1269 C.2      1 ZINC000095546207   -0.0900
23     C23    -5.4828   -5.1320   -1.6554 C.3      1 ZINC000095546207   -0.1400
24     C24    -4.4044   -3.7465   -3.5267 C.3      1 ZINC000095546207    0.1300
25     H25    -3.8293   -4.6752   -3.6729 H        1 ZINC000095546207    0.1100
26     O26    -5.5013   -3.7817   -4.4711 O.3      1 ZINC000095546207   -0.3400
27     C27    -5.9028   -4.9907   -4.8939 C.2      1 ZINC000095546207    0.4300
28     O28    -5.3534   -5.9865   -4.4861 O.2      1 ZINC000095546207   -0.4800
29     C29    -7.0390   -5.1060   -5.8772 C.3      1 ZINC000095546207    0.1200
30     H30    -7.9137   -4.5879   -5.4841 H        1 ZINC000095546207    0.1600
31     O31    -7.3540   -6.4848   -6.0815 O.3      1 ZINC000095546207   -0.5100
32     C32    -6.6275   -4.4741   -7.2084 C.3      1 ZINC000095546207    0.1800
33     H33    -6.3872   -3.4224   -7.0525 H        1 ZINC000095546207    0.1200
34     N34    -5.4518   -5.1705   -7.7368 N.am     1 ZINC000095546207   -0.7100
35     C35    -4.6151   -4.5351   -8.5809 C.2      1 ZINC000095546207    0.6600
36     O36    -4.8358   -3.3847   -8.9037 O.2      1 ZINC000095546207   -0.5500
37     O37    -3.5346   -5.1751   -9.0664 O.3      1 ZINC000095546207   -0.3600
38     C38    -2.6775   -4.4291   -9.9704 C.3      1 ZINC000095546207    0.1400
39     C39    -2.1345   -3.1915   -9.2534 C.3      1 ZINC000095546207   -0.1800
40     C40    -1.5112   -5.3143  -10.4142 C.3      1 ZINC000095546207   -0.1400
41     C41    -3.4839   -3.9955  -11.1963 C.3      1 ZINC000095546207   -0.1800
42     C42    -7.7636   -4.5895   -8.1917 C.ar     1 ZINC000095546207   -0.1000
43     C43    -7.9827   -5.7806   -8.8582 C.ar     1 ZINC000095546207   -0.0900
44     C44    -9.0249   -5.8863   -9.7602 C.ar     1 ZINC000095546207   -0.1200
45     C45    -9.8483   -4.8012   -9.9953 C.ar     1 ZINC000095546207   -0.1100
46     C46    -9.6298   -3.6104   -9.3281 C.ar     1 ZINC000095546207   -0.1200
47     C47    -8.5903   -3.5059   -8.4230 C.ar     1 ZINC000095546207   -0.1000
48     C48    -3.4761   -2.5929   -3.8516 C.3      1 ZINC000095546207   -0.1600
49     C49    -3.1850   -1.7249   -2.5930 C.3      1 ZINC000095546207    0.1500
50     O50    -2.4525   -0.5301   -2.8785 O.3      1 ZINC000095546207   -0.5100
51     C51    -2.3965   -2.7352   -1.7080 C.3      1 ZINC000095546207    0.0600
52     H52    -2.8945   -3.7046   -1.8197 H        1 ZINC000095546207    0.1300
53     O53    -1.0748   -2.8886   -2.3083 O.3      1 ZINC000095546207   -0.3500
54     C54    -0.8460   -4.0201   -3.0026 C.2      1 ZINC000095546207    0.5000
55     O55    -1.6848   -4.8984   -3.0259 O.2      1 ZINC000095546207   -0.4900
56     C56     0.4249   -4.1928   -3.7356 C.ar     1 ZINC000095546207   -0.1300
57     C57     1.3935   -3.1876   -3.7062 C.ar     1 ZINC000095546207   -0.0700
58     C58     2.5780   -3.3553   -4.3930 C.ar     1 ZINC000095546207   -0.1300
59     C59     2.8074   -4.5164   -5.1098 C.ar     1 ZINC000095546207   -0.0800
60     C60     1.8517   -5.5165   -5.1432 C.ar     1 ZINC000095546207   -0.1300
61     C61     0.6652   -5.3643   -4.4563 C.ar     1 ZINC000095546207   -0.0500
62     C62    -2.2743   -2.3463   -0.2341 C.3      1 ZINC000095546207   -0.1000
63     H63    -3.1023   -1.6589    0.0127 H        1 ZINC000095546207    0.1100
64     C64    -4.5971   -1.4733   -2.0043 C.3      1 ZINC000095546207    0.0000
65     C65    -5.6531   -1.2230   -3.0946 C.3      1 ZINC000095546207   -0.1500
66     C66    -4.6229   -0.2429   -1.0945 C.3      1 ZINC000095546207   -0.1500
67     H67    -2.7630    2.5855    0.8531 H        1 ZINC000095546207    0.1000
68     H68    -1.1647    2.5897    0.0698 H        1 ZINC000095546207    0.1000
69     H69    -2.6197    2.2005   -0.8787 H        1 ZINC000095546207    0.1100
70     H70     0.3934   -3.1649   -0.3442 H        1 ZINC000095546207    0.1000
71     H71     0.6895   -1.6451   -1.2983 H        1 ZINC000095546207    0.1100
72     H72     0.0410   -3.6771    1.6455 H        1 ZINC000095546207    0.0900
73     H73    -0.2981   -2.8790    3.1904 H        1 ZINC000095546207    0.0900
74     H74    -1.9508   -4.6264    3.6776 H        1 ZINC000095546207    0.3800
75     H75    -2.0316   -5.6384    0.7336 H        1 ZINC000095546207    0.0900
76     H76    -2.1936   -4.9895   -0.9159 H        1 ZINC000095546207    0.0700
77     H77    -0.7617   -4.5874    0.0619 H        1 ZINC000095546207    0.0600
78     H78    -6.5106   -3.2938    1.4612 H        1 ZINC000095546207    0.3800
79     H79    -6.5640   -5.1590   -1.7902 H        1 ZINC000095546207    0.0800
80     H80    -5.0242   -5.9333   -2.2348 H        1 ZINC000095546207    0.0800
81     H81    -5.2448   -5.2647   -0.6000 H        1 ZINC000095546207    0.0900
82     H82    -6.6199   -7.0083   -6.4310 H        1 ZINC000095546207    0.3800
83     H83    -5.2757   -6.0889   -7.4791 H        1 ZINC000095546207    0.4000
84     H84    -1.5600   -3.5004   -8.3800 H        1 ZINC000095546207    0.0600
85     H85    -1.4911   -2.6314   -9.9320 H        1 ZINC000095546207    0.0700
86     H86    -2.9654   -2.5609   -8.9372 H        1 ZINC000095546207    0.0900
87     H87    -1.8981   -6.1960  -10.9251 H        1 ZINC000095546207    0.0700
88     H88    -0.8678   -4.7542  -11.0928 H        1 ZINC000095546207    0.0800
89     H89    -0.9367   -5.6232   -9.5409 H        1 ZINC000095546207    0.0700
90     H90    -4.3149   -3.3649  -10.8801 H        1 ZINC000095546207    0.0900
91     H91    -2.8405   -3.4355  -11.8749 H        1 ZINC000095546207    0.0700
92     H92    -3.8708   -4.8772  -11.7071 H        1 ZINC000095546207    0.0600
93     H93    -7.3394   -6.6284   -8.6745 H        1 ZINC000095546207    0.1200
94     H94    -9.1956   -6.8167  -10.2814 H        1 ZINC000095546207    0.1200
95     H95   -10.6621   -4.8836  -10.7005 H        1 ZINC000095546207    0.1200
96     H96   -10.2729   -2.7624   -9.5121 H        1 ZINC000095546207    0.1200
97     H97    -8.4196   -2.5755   -7.9017 H        1 ZINC000095546207    0.1300
98     H98    -2.5176   -3.0156   -4.1990 H        1 ZINC000095546207    0.0700
99     H99    -3.8599   -1.9904   -4.6671 H        1 ZINC000095546207    0.1000
100    H100   -1.5855   -0.6862   -3.2773 H        1 ZINC000095546207    0.3800
101    H101    1.2157   -2.2807   -3.1474 H        1 ZINC000095546207    0.1400
102    H102    3.3280   -2.5785   -4.3714 H        1 ZINC000095546207    0.1300
103    H103    3.7363   -4.6425   -5.6460 H        1 ZINC000095546207    0.1300
104    H104    2.0371   -6.4203   -5.7047 H        1 ZINC000095546207    0.1300
105    H105   -0.0798   -6.1457   -4.4831 H        1 ZINC000095546207    0.1400
106    H106   -5.8058   -2.1367   -3.6690 H        1 ZINC000095546207    0.0900
107    H107   -6.5926   -0.9252   -2.6290 H        1 ZINC000095546207    0.0700
108    H108   -5.3091   -0.4298   -3.7584 H        1 ZINC000095546207    0.0700
109    H109   -4.4254    0.6509   -1.6864 H        1 ZINC000095546207    0.0800
110    H110   -5.6030   -0.1586   -0.6251 H        1 ZINC000095546207    0.0700
111    H111   -3.8585   -0.3446   -0.3240 H        1 ZINC000095546207    0.0600
@<TRIPOS>BOND
1     1     2     1
2     1     67    1
3     1     68    1
4     1     69    1
5     2     3     2
6     2     4     1
7     4     5     1
8     5     8     1
9     5     62    1
10    5     6     1
11    6     7     1
12    6     70    1
13    6     71    1
14    7     8     1
15    8     9     1
16    8     10    1
17    10    11    1
18    10    72    1
19    10    73    1
20    11    12    1
21    11    13    1
22    11    14    1
23    13    74    1
24    14    62    1
25    14    15    1
26    14    16    1
27    15    75    1
28    15    76    1
29    15    77    1
30    16    17    2
31    16    18    1
32    18    19    1
33    18    20    1
34    18    21    1
35    20    78    1
36    21    64    1
37    21    22    2
38    22    23    1
39    22    24    1
40    23    79    1
41    23    80    1
42    23    81    1
43    24    25    1
44    24    26    1
45    24    48    1
46    26    27    1
47    27    28    2
48    27    29    1
49    29    30    1
50    29    31    1
51    29    32    1
52    31    82    1
53    32    33    1
54    32    34    1
55    32    42    1
56    34    35    am
57    34    83    1
58    35    36    2
59    35    37    1
60    37    38    1
61    38    39    1
62    38    40    1
63    38    41    1
64    39    84    1
65    39    85    1
66    39    86    1
67    40    87    1
68    40    88    1
69    40    89    1
70    41    90    1
71    41    91    1
72    41    92    1
73    42    47    ar
74    42    43    ar
75    43    44    ar
76    43    93    1
77    44    45    ar
78    44    94    1
79    45    46    ar
80    45    95    1
81    46    47    ar
82    46    96    1
83    47    97    1
84    48    49    1
85    48    98    1
86    48    99    1
87    49    50    1
88    49    51    1
89    49    64    1
90    50    100   1
91    51    52    1
92    51    53    1
93    51    62    1
94    53    54    1
95    54    55    2
96    54    56    1
97    56    61    ar
98    56    57    ar
99    57    58    ar
100   57    101   1
101   58    59    ar
102   58    102   1
103   59    60    ar
104   59    103   1
105   60    61    ar
106   60    104   1
107   61    105   1
108   62    63    1
109   64    65    1
110   64    66    1
111   65    106   1
112   65    107   1
113   65    108   1
114   66    109   1
115   66    110   1
116   66    111   1
@<TRIPOS>SUBSTRUCTURE
1   ZINC000095546207 1     RESIDUE    1   A     ZIN   1
