@<TRIPOS>MOLECULE
ZINC000029747110
70    76    1     0     0
SMALL
USER_CHARGES
@<TRIPOS>ATOM
1      C1     -0.0173    1.4248    0.0099 C.3      1 ZINC000029747110    0.0200
2      O2      0.0021   -0.0041    0.0020 O.3      1 ZINC000029747110   -0.3200
3      C3      0.6058   -0.6071   -1.0557 C.ar     1 ZINC000029747110    0.1700
4      C4      1.1702    0.1645   -2.0578 C.ar     1 ZINC000029747110   -0.2300
5      C5      1.7846   -0.4436   -3.1360 C.ar     1 ZINC000029747110   -0.0300
6      C6      1.8335   -1.8210   -3.2117 C.ar     1 ZINC000029747110   -0.1800
7      C7      1.2681   -2.5992   -2.2075 C.ar     1 ZINC000029747110    0.1700
8      C8      0.6581   -1.9970   -1.1225 C.ar     1 ZINC000029747110   -0.2100
9      C9      0.0381   -2.7925   -0.0127 C.3      1 ZINC000029747110   -0.0300
10     H10    -0.9496   -2.3961    0.2229 H        1 ZINC000029747110    0.1200
11     C11     0.9319   -2.7561    1.2389 C.3      1 ZINC000029747110    0.0000
12     N12     0.8972   -4.1037    1.8376 N.4      1 ZINC000029747110   -0.3900
13     H13     1.8243   -4.5018    1.8319 H        1 ZINC000029747110    0.4300
14     C14     0.4032   -4.0185    3.2185 C.3      1 ZINC000029747110   -0.0100
15     C15     0.4862   -5.3975    3.8759 C.3      1 ZINC000029747110   -0.1400
16     C16    -0.0283   -5.3088    5.3140 C.3      1 ZINC000029747110   -0.1300
17     C17     0.0547   -6.6878    5.9714 C.3      1 ZINC000029747110    0.1100
18     N18    -0.4379   -6.6028    7.3485 N.am     1 ZINC000029747110   -0.5500
19     C19     0.4175   -6.3166    8.3449 C.2      1 ZINC000029747110    0.7100
20     O20     1.5915   -6.1319    8.0872 O.2      1 ZINC000029747110   -0.5300
21     N21     0.0030   -6.2300    9.6178 N.am     1 ZINC000029747110   -0.6200
22     C22    -1.3417   -6.4370    9.9484 C.2      1 ZINC000029747110    0.2400
23     C23    -2.2239   -6.7289    8.9461 C.2      1 ZINC000029747110   -0.3100
24     S24    -3.8471   -6.9490    9.5782 S.3      1 ZINC000029747110    0.3300
25     C25    -3.3359   -6.6425   11.2309 C.ar     1 ZINC000029747110    0.0100
26     N26    -4.0505   -6.6305   12.3631 N.ar     1 ZINC000029747110   -0.4000
27     C27    -3.4703   -6.3759   13.5140 C.ar     1 ZINC000029747110    0.1200
28     C28    -2.0957   -6.1142   13.5633 C.ar     1 ZINC000029747110    0.1600
29     C29    -1.4428   -5.8270   14.8639 C.ar     1 ZINC000029747110   -0.0600
30     C30    -0.0993   -5.4585   14.9058 C.ar     1 ZINC000029747110   -0.0700
31     C31     0.5030   -5.1925   16.1188 C.ar     1 ZINC000029747110   -0.1200
32     C32    -0.2240   -5.2916   17.2914 C.ar     1 ZINC000029747110   -0.0900
33     C33    -1.5577   -5.6570   17.2558 C.ar     1 ZINC000029747110   -0.1200
34     C34    -2.1720   -5.9192   16.0480 C.ar     1 ZINC000029747110   -0.0900
35     N35    -1.3795   -6.1231   12.4541 N.ar     1 ZINC000029747110   -0.4000
36     C36    -1.9644   -6.3831   11.2708 C.ar     1 ZINC000029747110    0.0600
37     C37    -1.7428   -6.8065    7.6027 C.2      1 ZINC000029747110    0.6000
38     O38    -2.5095   -7.0650    6.6930 O.2      1 ZINC000029747110   -0.4900
39     C39    -0.0129   -4.9508    1.0382 C.3      1 ZINC000029747110   -0.0100
40     C40    -0.0663   -4.2881   -0.3737 C.3      1 ZINC000029747110   -0.1400
41     H41    -0.9783   -4.5401   -0.9148 H        1 ZINC000029747110    0.1400
42     C42     1.1917   -4.7063   -1.1394 C.3      1 ZINC000029747110    0.0600
43     O43     1.3341   -3.9521   -2.3147 O.3      1 ZINC000029747110   -0.2900
44     H44     1.0053    1.8021    0.0021 H        1 ZINC000029747110    0.0600
45     H45    -0.5445    1.7859   -0.8732 H        1 ZINC000029747110    0.0600
46     H46    -0.5275    1.7763    0.9067 H        1 ZINC000029747110    0.1100
47     H47     1.1300    1.2421   -1.9967 H        1 ZINC000029747110    0.1400
48     H48     2.2250    0.1574   -3.9178 H        1 ZINC000029747110    0.1400
49     H49     2.3127   -2.2964   -4.0547 H        1 ZINC000029747110    0.1400
50     H50     1.9537   -2.5013    0.9577 H        1 ZINC000029747110    0.1300
51     H51     0.5465   -2.0245    1.9490 H        1 ZINC000029747110    0.1400
52     H52     1.0136   -3.3110    3.7797 H        1 ZINC000029747110    0.1300
53     H53    -0.6330   -3.6801    3.2134 H        1 ZINC000029747110    0.1300
54     H54    -0.1242   -6.1049    3.3146 H        1 ZINC000029747110    0.0900
55     H55     1.5224   -5.7358    3.8809 H        1 ZINC000029747110    0.0900
56     H56     0.5821   -4.6013    5.8753 H        1 ZINC000029747110    0.0800
57     H57    -1.0645   -4.9704    5.3090 H        1 ZINC000029747110    0.0800
58     H58    -0.5557   -7.3952    5.4101 H        1 ZINC000029747110    0.1100
59     H59     1.0909   -7.0261    5.9765 H        1 ZINC000029747110    0.1100
60     H60     0.6422   -6.0219   10.3172 H        1 ZINC000029747110    0.4400
61     H61    -4.0541   -6.3682   14.4226 H        1 ZINC000029747110    0.1900
62     H62     0.4694   -5.3815   13.9909 H        1 ZINC000029747110    0.1300
63     H63     1.5439   -4.9068   16.1525 H        1 ZINC000029747110    0.1300
64     H64     0.2515   -5.0832   18.2384 H        1 ZINC000029747110    0.1300
65     H65    -2.1205   -5.7328   18.1744 H        1 ZINC000029747110    0.1300
66     H66    -3.2133   -6.2044   16.0213 H        1 ZINC000029747110    0.1300
67     H67     0.3769   -5.9665    0.9704 H        1 ZINC000029747110    0.1400
68     H68    -1.0102   -4.9555    1.4781 H        1 ZINC000029747110    0.1400
69     H69     2.0720   -4.5143   -0.5259 H        1 ZINC000029747110    0.0500
70     H70     1.1371   -5.7688   -1.3766 H        1 ZINC000029747110    0.1300
@<TRIPOS>BOND
1     1     2     1
2     1     44    1
3     1     45    1
4     1     46    1
5     2     3     1
6     3     8     ar
7     3     4     ar
8     4     5     ar
9     4     47    1
10    5     6     ar
11    5     48    1
12    6     7     ar
13    6     49    1
14    7     43    1
15    7     8     ar
16    8     9     1
17    9     10    1
18    9     40    1
19    9     11    1
20    11    12    1
21    11    50    1
22    11    51    1
23    12    13    1
24    12    14    1
25    12    39    1
26    14    15    1
27    14    52    1
28    14    53    1
29    15    16    1
30    15    54    1
31    15    55    1
32    16    17    1
33    16    56    1
34    16    57    1
35    17    18    1
36    17    58    1
37    17    59    1
38    18    37    am
39    18    19    am
40    19    20    2
41    19    21    am
42    21    22    1
43    21    60    1
44    22    36    1
45    22    23    2
46    23    24    1
47    23    37    1
48    24    25    1
49    25    36    ar
50    25    26    ar
51    26    27    ar
52    27    28    ar
53    27    61    1
54    28    29    1
55    28    35    ar
56    29    34    ar
57    29    30    ar
58    30    31    ar
59    30    62    1
60    31    32    ar
61    31    63    1
62    32    33    ar
63    32    64    1
64    33    34    ar
65    33    65    1
66    34    66    1
67    35    36    ar
68    37    38    2
69    39    40    1
70    39    67    1
71    39    68    1
72    40    41    1
73    40    42    1
74    42    43    1
75    42    69    1
76    42    70    1
@<TRIPOS>SUBSTRUCTURE
1   ZINC000029747110 1     RESIDUE    1   A     ZIN   1
