@<TRIPOS>MOLECULE
ZINC000003811831
56    59    1     0     0
SMALL
USER_CHARGES
@<TRIPOS>ATOM
1      C1      0.0142    1.4413   -0.0040 C.3      1 ZINC000003811831    0.0200
2      O2      0.0330    0.0125   -0.0170 O.3      1 ZINC000003811831   -0.2700
3      C3      0.6476   -0.6050    1.0231 C.ar     1 ZINC000003811831    0.2200
4      C4      1.2156    0.1449    2.0380 C.ar     1 ZINC000003811831   -0.2300
5      C5      1.8442   -0.4885    3.1017 C.ar     1 ZINC000003811831    0.2300
6      N6      2.4162    0.2705    4.1228 N.am     1 ZINC000003811831   -0.6600
7      C7      1.9636    1.5154    4.3716 C.2      1 ZINC000003811831    0.5500
8      O8      0.9951    1.9387    3.7769 O.2      1 ZINC000003811831   -0.5100
9      C9      2.6610    2.3814    5.3888 C.3      1 ZINC000003811831   -0.2000
10     C10     3.4189    3.6063    4.8730 C.3      1 ZINC000003811831   -0.1500
11     C11     2.0990    3.7846    5.6261 C.3      1 ZINC000003811831   -0.1400
12     C12     1.9053   -1.8798    3.1531 C.ar     1 ZINC000003811831   -0.1200
13     Cl13    2.6929   -2.6626    4.4875 Cl       1 ZINC000003811831   -0.0600
14     C14     1.3428   -2.6351    2.1494 C.ar     1 ZINC000003811831   -0.0100
15     C15     0.7041   -2.0060    1.0760 C.ar     1 ZINC000003811831   -0.1900
16     C16     0.1005   -2.8112    0.0003 C.2      1 ZINC000003811831    0.5700
17     O17    -0.4544   -2.2619   -0.9321 O.2      1 ZINC000003811831   -0.5100
18     N18     0.1632   -4.1566    0.0494 N.am     1 ZINC000003811831   -0.7300
19     C19    -0.4372   -4.9574   -1.0204 C.3      1 ZINC000003811831    0.1400
20     H20    -1.3354   -4.4694   -1.3989 H        1 ZINC000003811831    0.1000
21     C21     0.5796   -5.1720   -2.1650 C.3      1 ZINC000003811831   -0.1300
22     C22     1.1678   -6.5700   -1.8483 C.3      1 ZINC000003811831    0.0400
23     N23    -0.0058   -7.3253   -1.3399 N.3      1 ZINC000003811831   -0.5100
24     C24     0.4188   -8.4892   -0.5508 C.3      1 ZINC000003811831    0.0900
25     C25     1.0348   -9.5176   -1.4640 C.ar     1 ZINC000003811831   -0.0800
26     C26     0.2413  -10.4871   -2.0481 C.ar     1 ZINC000003811831   -0.1000
27     C27     0.8064  -11.4305   -2.8858 C.ar     1 ZINC000003811831   -0.1200
28     C28     2.1649  -11.4040   -3.1397 C.ar     1 ZINC000003811831   -0.1200
29     C29     2.9584  -10.4339   -2.5563 C.ar     1 ZINC000003811831   -0.1200
30     C30     2.3926   -9.4880   -1.7220 C.ar     1 ZINC000003811831   -0.1100
31     C31    -0.7723   -6.3700   -0.5069 C.3      1 ZINC000003811831    0.0300
32     H32     1.0370    1.8181   -0.0026 H        1 ZINC000003811831    0.0600
33     H33    -0.5061    1.8060   -0.8896 H        1 ZINC000003811831    0.1100
34     H34    -0.5025    1.7898    0.8903 H        1 ZINC000003811831    0.0600
35     H35     1.1704    1.2234    2.0024 H        1 ZINC000003811831    0.1700
36     H36     3.1397   -0.0976    4.6537 H        1 ZINC000003811831    0.4200
37     H37     3.0791    1.8550    6.2468 H        1 ZINC000003811831    0.1300
38     H38     4.3359    3.8859    5.3916 H        1 ZINC000003811831    0.1100
39     H39     3.4131    3.7858    3.7979 H        1 ZINC000003811831    0.1000
40     H40     1.2249    4.0813    5.0465 H        1 ZINC000003811831    0.1100
41     H41     2.1478    4.1814    6.6402 H        1 ZINC000003811831    0.1100
42     H42     1.3916   -3.7132    2.1925 H        1 ZINC000003811831    0.1500
43     H43     0.6057   -4.5947    0.7931 H        1 ZINC000003811831    0.3900
44     H44     0.0767   -5.1752   -3.1321 H        1 ZINC000003811831    0.0900
45     H45     1.3588   -4.4103   -2.1367 H        1 ZINC000003811831    0.0800
46     H46     1.5626   -7.0349   -2.7517 H        1 ZINC000003811831    0.0900
47     H47     1.9400   -6.4980   -1.0824 H        1 ZINC000003811831    0.0400
48     H48     1.1528   -8.1765    0.1918 H        1 ZINC000003811831    0.0500
49     H49    -0.4458   -8.9218   -0.0473 H        1 ZINC000003811831    0.0900
50     H50    -0.8201  -10.5078   -1.8497 H        1 ZINC000003811831    0.1200
51     H51     0.1865  -12.1884   -3.3416 H        1 ZINC000003811831    0.1200
52     H52     2.6065  -12.1414   -3.7936 H        1 ZINC000003811831    0.1200
53     H53     4.0198  -10.4135   -2.7544 H        1 ZINC000003811831    0.1200
54     H54     3.0124   -8.7301   -1.2662 H        1 ZINC000003811831    0.1200
55     H55    -0.4744   -6.4657    0.5372 H        1 ZINC000003811831    0.0500
56     H56    -1.8404   -6.5612   -0.6102 H        1 ZINC000003811831    0.1000
@<TRIPOS>BOND
1     1     2     1
2     1     32    1
3     1     33    1
4     1     34    1
5     2     3     1
6     3     15    ar
7     3     4     ar
8     4     5     ar
9     4     35    1
10    5     6     1
11    5     12    ar
12    6     7     am
13    6     36    1
14    7     8     2
15    7     9     1
16    9     11    1
17    9     10    1
18    9     37    1
19    10    11    1
20    10    38    1
21    10    39    1
22    11    40    1
23    11    41    1
24    12    13    1
25    12    14    ar
26    14    15    ar
27    14    42    1
28    15    16    1
29    16    17    2
30    16    18    am
31    18    19    1
32    18    43    1
33    19    20    1
34    19    31    1
35    19    21    1
36    21    22    1
37    21    44    1
38    21    45    1
39    22    23    1
40    22    46    1
41    22    47    1
42    23    24    1
43    23    31    1
44    24    25    1
45    24    48    1
46    24    49    1
47    25    30    ar
48    25    26    ar
49    26    27    ar
50    26    50    1
51    27    28    ar
52    27    51    1
53    28    29    ar
54    28    52    1
55    29    30    ar
56    29    53    1
57    30    54    1
58    31    55    1
59    31    56    1
@<TRIPOS>SUBSTRUCTURE
1   ZINC000003811831 1     RESIDUE    1   A     ZIN   1
