@<TRIPOS>MOLECULE
ZINC000003800855
55    60    1     0     0
SMALL
USER_CHARGES
@<TRIPOS>ATOM
1      C1     -0.0187    1.5258    0.0104 C.3      1 ZINC000003800855   -0.1700
2      C2      0.0021   -0.0041    0.0020 C.3      1 ZINC000003800855   -0.1400
3      C3     -1.4333   -0.5336    0.0129 C.3      1 ZINC000003800855    0.1300
4      O4     -2.1047   -0.0704    1.1862 O.3      1 ZINC000003800855   -0.5300
5      C5     -2.1627   -0.0422   -1.2162 C.2      1 ZINC000003800855    0.4700
6      O6     -2.9326    0.8877   -1.1673 O.2      1 ZINC000003800855   -0.4100
7      O7     -1.9111   -0.6956   -2.3737 O.3      1 ZINC000003800855   -0.3600
8      C8     -2.2549   -2.1058   -2.3626 C.3      1 ZINC000003800855    0.1400
9      C9     -1.7807   -2.7581   -1.0911 C.2      1 ZINC000003800855   -0.2100
10     C10    -1.4146   -2.0415    0.0046 C.2      1 ZINC000003800855    0.0300
11     C11    -1.0029   -2.7149    1.1626 C.2      1 ZINC000003800855   -0.1100
12     C12    -0.9612   -4.0925    1.1870 C.2      1 ZINC000003800855    0.1600
13     C13    -0.5704   -5.0221    2.2727 C.ar     1 ZINC000003800855    0.2000
14     C14    -0.7010   -6.3370    1.7922 C.ar     1 ZINC000003800855   -0.1800
15     C15    -1.1834   -6.2345    0.3684 C.3      1 ZINC000003800855    0.1300
16     N16    -1.3207   -4.8016    0.0761 N.am     1 ZINC000003800855   -0.5000
17     C17    -1.7190   -4.1664   -1.0426 C.2      1 ZINC000003800855    0.5500
18     O18    -2.0310   -4.8174   -2.0265 O.2      1 ZINC000003800855   -0.5200
19     C19    -0.4059   -7.3911    2.5952 C.ar     1 ZINC000003800855   -0.0300
20     C20     0.0307   -7.1343    3.9082 C.ar     1 ZINC000003800855   -0.0700
21     C21     0.1480   -5.7878    4.3412 C.ar     1 ZINC000003800855    0.1800
22     N22    -0.1565   -4.7911    3.5094 N.ar     1 ZINC000003800855   -0.4100
23     C23     0.5879   -5.5310    5.6526 C.ar     1 ZINC000003800855   -0.1200
24     C24     0.8909   -6.5705    6.4803 C.ar     1 ZINC000003800855    0.1500
25     F25     1.3130   -6.3168    7.7384 F        1 ZINC000003800855   -0.1100
26     C26     0.7718   -7.8936    6.0496 C.ar     1 ZINC000003800855   -0.0800
27     C27     1.1151   -9.0174    6.9930 C.3      1 ZINC000003800855   -0.1300
28     C28     0.3487   -8.1803    4.7884 C.ar     1 ZINC000003800855   -0.0600
29     C29     0.2222   -9.6129    4.3382 C.3      1 ZINC000003800855   -0.0800
30     C30     0.4680   -9.6960    2.8295 C.3      1 ZINC000003800855   -0.1400
31     C31    -0.5404   -8.8054    2.1002 C.3      1 ZINC000003800855    0.0800
32     H32    -1.5509   -9.1642    2.2961 H        1 ZINC000003800855    0.1700
33     N33    -0.2767   -8.8475    0.6557 N.4      1 ZINC000003800855   -0.6400
34     H34    -0.3657   -9.7966    0.3251 H        1 ZINC000003800855    0.4500
35     H35    -0.9418   -8.2602    0.1751 H        1 ZINC000003800855    0.4300
36     H36     0.6584   -8.5145    0.4747 H        1 ZINC000003800855    0.4400
37     H37     1.0039    1.9031    0.0027 H        1 ZINC000003800855    0.0800
38     H38    -0.5459    1.8868   -0.8726 H        1 ZINC000003800855    0.0600
39     H39    -0.5289    1.8773    0.9072 H        1 ZINC000003800855    0.0700
40     H40     0.5123   -0.3556   -0.8948 H        1 ZINC000003800855    0.0900
41     H41     0.5293   -0.3651    0.8851 H        1 ZINC000003800855    0.1000
42     H42    -2.1561    0.8927    1.2556 H        1 ZINC000003800855    0.4000
43     H43    -3.3370   -2.2123   -2.4389 H        1 ZINC000003800855    0.1000
44     H44    -1.7853   -2.5968   -3.2149 H        1 ZINC000003800855    0.1400
45     H45    -0.7168   -2.1525    2.0391 H        1 ZINC000003800855    0.1700
46     H46    -0.4555   -6.6854   -0.3061 H        1 ZINC000003800855    0.1000
47     H47    -2.1480   -6.7313    0.2640 H        1 ZINC000003800855    0.1200
48     H48     0.6856   -4.5138    6.0021 H        1 ZINC000003800855    0.1700
49     H49     0.2250   -9.3083    7.5508 H        1 ZINC000003800855    0.0900
50     H50     1.4818   -9.8711    6.4231 H        1 ZINC000003800855    0.0900
51     H51     1.8869   -8.6857    7.6876 H        1 ZINC000003800855    0.0800
52     H52     0.9579  -10.2243    4.8606 H        1 ZINC000003800855    0.1200
53     H53    -0.7799   -9.9777    4.5638 H        1 ZINC000003800855    0.1000
54     H54     1.4794   -9.3563    2.6066 H        1 ZINC000003800855    0.1000
55     H55     0.3491  -10.7275    2.4980 H        1 ZINC000003800855    0.1100
@<TRIPOS>BOND
1     1     2     1
2     1     37    1
3     1     38    1
4     1     39    1
5     2     3     1
6     2     40    1
7     2     41    1
8     3     10    1
9     3     4     1
10    3     5     1
11    4     42    1
12    5     6     2
13    5     7     1
14    7     8     1
15    8     9     1
16    8     43    1
17    8     44    1
18    9     17    1
19    9     10    2
20    10    11    1
21    11    12    2
22    11    45    1
23    12    16    1
24    12    13    1
25    13    22    ar
26    13    14    ar
27    14    15    1
28    14    19    ar
29    15    16    1
30    15    46    1
31    15    47    1
32    16    17    am
33    17    18    2
34    19    31    1
35    19    20    ar
36    20    28    ar
37    20    21    ar
38    21    22    ar
39    21    23    ar
40    23    24    ar
41    23    48    1
42    24    25    1
43    24    26    ar
44    26    27    1
45    26    28    ar
46    27    49    1
47    27    50    1
48    27    51    1
49    28    29    1
50    29    30    1
51    29    52    1
52    29    53    1
53    30    31    1
54    30    54    1
55    30    55    1
56    31    32    1
57    31    33    1
58    33    34    1
59    33    35    1
60    33    36    1
@<TRIPOS>SUBSTRUCTURE
1   ZINC000003800855 1     RESIDUE    1   A     ZIN   1
