@<TRIPOS>MOLECULE
ZINC000003633468
  54   57    0    0    0
SMALL
USER_CHARGES
NO_NAME
@<TRIPOS>ATOM
    1 C1        0.0905     0.2246     0.8068 C.3    1 <0>      -0.1500
    2 C2        0.0130    -1.2805     0.5434 C.3    1 <0>       0.0500
    3 O3        0.6886    -1.5857    -0.6783 O.3    1 <0>      -0.2800
    4 C4        0.7128    -2.8867    -1.0600 C.2    1 <0>       0.3200
    5 N5        0.1746    -3.8882    -0.4240 N.2    1 <0>      -0.3500
    6 O6        0.4114    -5.0862    -1.1355 O.3    1 <0>      -0.0700
    7 C7        1.1210    -4.8137    -2.2498 C.ar   1 <0>       0.1400
    8 C8        1.6138    -5.6013    -3.2809 C.ar   1 <0>      -0.1700
    9 C9        2.3242    -5.0149    -4.3139 C.ar   1 <0>       0.2000
   10 O10       2.8062    -5.7852    -5.3234 O.3    1 <0>      -0.3000
   11 C11       3.5308    -5.1185    -6.3590 C.3    1 <0>       0.0500
   12 C12       3.9913    -6.1417    -7.3992 C.3    1 <0>      -0.1100
   13 C13       4.7672    -5.4279    -8.5080 C.3    1 <0>      -0.0800
   14 C14       6.0517    -4.8311    -7.9285 C.3    1 <0>      -0.1400
   15 C15       6.8086    -4.0878    -9.0337 C.3    1 <0>       0.1200
   16 N16       7.0246    -5.0070   -10.1595 N.pl3  1 <0>      -0.6000
   17 C17       8.3011    -5.2130   -10.6710 C.ar   1 <0>       0.3400
   18 C18       9.3565    -4.3942   -10.2713 C.ar   1 <0>      -0.1800
   19 C19      10.6093    -4.6410   -10.8106 C.ar   1 <0>      -0.0800
   20 C20      10.7362    -5.6866   -11.7140 C.ar   1 <0>       0.0100
   21 C21      12.0782    -5.9941   -12.3268 C.3    1 <0>      -0.0900
   22 N22       9.6832    -6.4113   -12.0360 N.ar   1 <0>      -0.2000
   23 N23       8.5214    -6.1920   -11.5366 N.ar   1 <0>      -0.3000
   24 C24       5.8662    -5.7047   -10.7340 C.3    1 <0>       0.1200
   25 C25       5.1199    -6.4298    -9.6098 C.3    1 <0>      -0.1300
   26 C26       2.5477    -3.6405    -4.3256 C.ar   1 <0>      -0.2400
   27 C27       2.0687    -2.8533    -3.3177 C.ar   1 <0>       0.0200
   28 C28       1.3454    -3.4273    -2.2707 C.ar   1 <0>      -0.2300
   29 H29       1.1349     0.5267     0.8839 H      1 <0>       0.0700
   30 H30      -0.3835     0.7621    -0.0145 H      1 <0>       0.0700
   31 H31      -0.4248     0.4574     1.7387 H      1 <0>       0.0900
   32 H32       0.4870    -1.8180     1.3648 H      1 <0>       0.0700
   33 H33      -1.0314    -1.5826     0.4663 H      1 <0>       0.0700
   34 H34       1.4438    -6.6678    -3.2771 H      1 <0>       0.1500
   35 H35       2.8863    -4.3803    -6.8361 H      1 <0>       0.0700
   36 H36       4.4001    -4.6194    -5.9308 H      1 <0>       0.0700
   37 H37       4.6359    -6.8800    -6.9222 H      1 <0>       0.0800
   38 H38       3.1221    -6.6408    -7.8275 H      1 <0>       0.0800
   39 H39       4.1527    -4.6303    -8.9257 H      1 <0>       0.0800
   40 H40       5.8007    -4.1351    -7.1281 H      1 <0>       0.0800
   41 H41       6.6781    -5.6306    -7.5330 H      1 <0>       0.0700
   42 H42       6.2209    -3.2328    -9.3677 H      1 <0>       0.0700
   43 H43       7.7704    -3.7459    -8.6516 H      1 <0>       0.0800
   44 H44       9.2026    -3.5926    -9.5641 H      1 <0>       0.1500
   45 H45      11.4615    -4.0371   -10.5359 H      1 <0>       0.1500
   46 H46      12.6077    -6.7120   -11.7005 H      1 <0>       0.0800
   47 H47      11.9353    -6.4158   -13.3217 H      1 <0>       0.0800
   48 H48      12.6623    -5.0768   -12.4014 H      1 <0>       0.0700
   49 H49       5.2016    -4.9815   -11.2067 H      1 <0>       0.0600
   50 H50       6.2062    -6.4295   -11.4737 H      1 <0>       0.1000
   51 H51       5.7551    -7.2143    -9.1984 H      1 <0>       0.0700
   52 H52       4.2057    -6.8717   -10.0060 H      1 <0>       0.0800
   53 H53       3.1037    -3.1943    -5.1368 H      1 <0>       0.1400
   54 H54       2.2459    -1.7880    -3.3325 H      1 <0>       0.1400
@<TRIPOS>BOND
   1    1    2 1
   2    1   29 1
   3    1   30 1
   4    1   31 1
   5    2    3 1
   6    2   32 1
   7    2   33 1
   8    3    4 1
   9    4   28 1
  10    4    5 2
  11    5    6 1
  12    6    7 1
  13    7   28 ar
  14    7    8 ar
  15    8    9 ar
  16    8   34 1
  17    9   10 1
  18    9   26 ar
  19   10   11 1
  20   11   12 1
  21   11   35 1
  22   11   36 1
  23   12   13 1
  24   12   37 1
  25   12   38 1
  26   13   25 1
  27   13   14 1
  28   13   39 1
  29   14   15 1
  30   14   40 1
  31   14   41 1
  32   15   16 1
  33   15   42 1
  34   15   43 1
  35   16   17 1
  36   16   24 1
  37   17   23 ar
  38   17   18 ar
  39   18   19 ar
  40   18   44 1
  41   19   20 ar
  42   19   45 1
  43   20   21 1
  44   20   22 ar
  45   21   46 1
  46   21   47 1
  47   21   48 1
  48   22   23 ar
  49   24   25 1
  50   24   49 1
  51   24   50 1
  52   25   51 1
  53   25   52 1
  54   26   27 ar
  55   26   53 1
  56   27   28 ar
  57   27   54 1
