@<TRIPOS>MOLECULE
ZINC000026501186
39    43    1     0     0
SMALL
USER_CHARGES
@<TRIPOS>ATOM
1      C1     -0.0178    1.4615    0.0101 C.3      1 ZINC000026501186    0.0200
2      N2      0.0021   -0.0041    0.0020 N.3      1 ZINC000026501186   -0.5300
3      C3     -1.3755   -0.5282   -0.0403 C.3      1 ZINC000026501186    0.0900
4      C4     -1.3310   -2.0312   -0.1345 C.ar     1 ZINC000026501186   -0.0800
5      C5     -2.4367   -2.6972   -0.6367 C.ar     1 ZINC000026501186   -0.1200
6      C6     -2.4256   -4.0718   -0.7652 C.ar     1 ZINC000026501186   -0.1200
7      C7     -1.2983   -4.7830   -0.4008 C.ar     1 ZINC000026501186   -0.1200
8      C8     -0.1989   -4.1180    0.1041 C.ar     1 ZINC000026501186   -0.1200
9      C9     -0.2168   -2.7415    0.2712 C.ar     1 ZINC000026501186   -0.0500
10     C10     0.9679   -2.0655    0.8918 C.3      1 ZINC000026501186    0.0100
11     H11     1.7999   -2.1227    0.1830 H        1 ZINC000026501186    0.1000
12     C12     1.4124   -2.7169    2.1646 C.ar     1 ZINC000026501186   -0.0200
13     C13     2.1935   -1.9022    2.9981 C.ar     1 ZINC000026501186   -0.1400
14     C14     2.5334   -0.5018    2.7516 C.2      1 ZINC000026501186   -0.1700
15     C15     3.3050   -0.1368    3.7626 C.2      1 ZINC000026501186    0.0600
16     N16     3.4659   -1.1929    4.6470 N.pl3    1 ZINC000026501186   -0.6000
17     C17     2.7699   -2.2817    4.2153 C.ar     1 ZINC000026501186    0.1100
18     C18     2.5172   -3.5751    4.6685 C.ar     1 ZINC000026501186   -0.1300
19     C19     1.7230   -4.3747    3.8592 C.ar     1 ZINC000026501186   -0.0900
20     C20     1.1791   -3.9633    2.6408 C.ar     1 ZINC000026501186   -0.1500
21     C21     1.9674    0.1842    1.5258 C.3      1 ZINC000026501186   -0.0300
22     C22     0.6915   -0.5799    1.1539 C.3      1 ZINC000026501186    0.1000
23     H23     0.0129   -0.5248    2.0119 H        1 ZINC000026501186    0.0400
24     H24     1.0048    1.8388    0.0023 H        1 ZINC000026501186    0.0800
25     H25    -0.5450    1.8226   -0.8730 H        1 ZINC000026501186    0.0700
26     H26    -0.5280    1.8130    0.9069 H        1 ZINC000026501186    0.0300
27     H27    -1.8958   -0.2365    0.8682 H        1 ZINC000026501186    0.0500
28     H28    -1.8854   -0.1238   -0.9097 H        1 ZINC000026501186    0.0900
29     H29    -3.3141   -2.1392   -0.9301 H        1 ZINC000026501186    0.1200
30     H30    -3.2935   -4.5878   -1.1469 H        1 ZINC000026501186    0.1200
31     H31    -1.2781   -5.8579   -0.5095 H        1 ZINC000026501186    0.1200
32     H32     0.6955   -4.6757    0.3413 H        1 ZINC000026501186    0.1300
33     H33     3.7466    0.8414    3.8825 H        1 ZINC000026501186    0.1700
34     H34     3.9957   -1.1608    5.4586 H        1 ZINC000026501186    0.4200
35     H35     2.9186   -3.9364    5.6033 H        1 ZINC000026501186    0.1300
36     H36     1.5116   -5.3807    4.1902 H        1 ZINC000026501186    0.1200
37     H37     0.5573   -4.6559    2.0950 H        1 ZINC000026501186    0.1300
38     H38     1.7507    1.2186    1.7851 H        1 ZINC000026501186    0.0800
39     H39     2.6869    0.1365    0.7111 H        1 ZINC000026501186    0.0800
@<TRIPOS>BOND
1     1     2     1
2     1     24    1
3     1     25    1
4     1     26    1
5     2     22    1
6     2     3     1
7     3     4     1
8     3     27    1
9     3     28    1
10    4     9     ar
11    4     5     ar
12    5     6     ar
13    5     29    1
14    6     7     ar
15    6     30    1
16    7     8     ar
17    7     31    1
18    8     9     ar
19    8     32    1
20    9     10    1
21    10    11    1
22    10    22    1
23    10    12    1
24    12    20    ar
25    12    13    ar
26    13    17    ar
27    13    14    1
28    14    15    2
29    14    21    1
30    15    16    1
31    15    33    1
32    16    17    1
33    16    34    1
34    17    18    ar
35    18    19    ar
36    18    35    1
37    19    20    ar
38    19    36    1
39    20    37    1
40    21    22    1
41    21    38    1
42    21    39    1
43    22    23    1
@<TRIPOS>SUBSTRUCTURE
1   ZINC000026501186 1     RESIDUE    1   A     ZIN   1
