@<TRIPOS>MOLECULE
ZINC000016052714
63    68    1     0     0
SMALL
USER_CHARGES
@<TRIPOS>ATOM
1      C1     -0.0225    1.8097    0.0120 C.3      1 ZINC000016052714   -0.6700
2      S2      0.0021   -0.0041    0.0020 S.o2     1 ZINC000016052714    2.6000
3      O3      0.8448   -0.4970    1.0346 O.2      1 ZINC000016052714   -0.9300
4      O4     -1.3093   -0.5195   -0.1821 O.2      1 ZINC000016052714   -0.9300
5      N5      0.7961   -0.3989   -1.3965 N.am     1 ZINC000016052714   -1.0200
6      C6      0.0609   -0.5847   -2.6571 C.3      1 ZINC000016052714    0.1000
7      C7      0.7405    0.2548   -3.7440 C.3      1 ZINC000016052714   -0.0200
8      N8      2.1641   -0.0979   -3.8150 N.4      1 ZINC000016052714   -0.3800
9      H9      2.2561   -1.0909   -3.9683 H        1 ZINC000016052714    0.4300
10     C10     2.7916    0.6277   -4.9276 C.3      1 ZINC000016052714    0.0800
11     C11     4.2211    0.1755   -5.0795 C.2      1 ZINC000016052714   -0.2400
12     C12     4.6089   -0.8275   -5.8500 C.2      1 ZINC000016052714   -0.0400
13     C13     6.0336   -1.0855   -5.8424 C.ar     1 ZINC000016052714    0.1800
14     N14     6.7494   -2.0195   -6.5044 N.ar     1 ZINC000016052714   -0.5000
15     C15     8.0586   -2.0975   -6.3651 C.ar     1 ZINC000016052714    0.4200
16     C16     8.7961   -3.1397   -7.1132 C.ar     1 ZINC000016052714    0.0000
17     C17    10.1666   -3.2591   -6.9911 C.ar     1 ZINC000016052714   -0.0600
18     C18    10.8731   -4.2349   -7.6889 C.ar     1 ZINC000016052714   -0.1000
19     C19    10.2704   -5.1193   -8.5217 C.ar     1 ZINC000016052714   -0.0600
20     C20     8.8737   -5.0829   -8.7164 C.ar     1 ZINC000016052714    0.0900
21     N21     8.0171   -5.7838   -9.4376 N.2      1 ZINC000016052714   -0.2900
22     N22     6.7280   -5.2806   -9.2267 N.pl3    1 ZINC000016052714   -0.4300
23     C23     6.7741   -4.2536   -8.3650 C.2      1 ZINC000016052714    0.0900
24     C24     8.0878   -4.0704   -7.9941 C.ar     1 ZINC000016052714   -0.1800
25     N25     8.7389   -1.2708   -5.5753 N.ar     1 ZINC000016052714   -0.5300
26     C26     8.1162   -0.3240   -4.8883 C.ar     1 ZINC000016052714    0.4300
27     N27     8.8305    0.5340   -4.0679 N.3      1 ZINC000016052714   -0.4700
28     C28     8.5923    1.9368   -4.4379 C.3      1 ZINC000016052714    0.0200
29     C29     9.3512    2.8498   -3.4712 C.3      1 ZINC000016052714    0.0600
30     O30    10.7406    2.5119   -3.4957 O.3      1 ZINC000016052714   -0.3700
31     C31    11.0089    1.1529   -3.1399 C.3      1 ZINC000016052714    0.0600
32     C32    10.2668    0.2227   -4.1032 C.3      1 ZINC000016052714    0.0200
33     C33     6.7194   -0.2023   -5.0045 C.ar     1 ZINC000016052714   -0.2700
34     S34     5.5853    0.9161   -4.2634 S.3      1 ZINC000016052714    0.1800
35     C35     2.8326    0.2657   -2.5593 C.3      1 ZINC000016052714   -0.0400
36     C36     2.2574   -0.5677   -1.4149 C.3      1 ZINC000016052714    0.1000
37     H37     1.0001    2.1870    0.0043 H        1 ZINC000016052714    0.1300
38     H38    -0.5497    2.1708   -0.8711 H        1 ZINC000016052714    0.1300
39     H39    -0.5327    2.1613    0.9088 H        1 ZINC000016052714    0.1400
40     H40     0.0808   -1.6368   -2.9411 H        1 ZINC000016052714    0.1000
41     H41    -0.9706   -0.2555   -2.5315 H        1 ZINC000016052714    0.1400
42     H42     0.2682    0.0552   -4.7059 H        1 ZINC000016052714    0.1500
43     H43     0.6398    1.3129   -3.5021 H        1 ZINC000016052714    0.1400
44     H44     2.2459    0.4229   -5.8486 H        1 ZINC000016052714    0.1500
45     H45     2.7689    1.6979   -4.7221 H        1 ZINC000016052714    0.1500
46     H46     3.9158   -1.4095   -6.4392 H        1 ZINC000016052714    0.1700
47     H47    10.7010   -2.5817   -6.3416 H        1 ZINC000016052714    0.1400
48     H48    11.9443   -4.2894   -7.5622 H        1 ZINC000016052714    0.1400
49     H49    10.8646   -5.8572   -9.0402 H        1 ZINC000016052714    0.1400
50     H50     5.9213   -5.6232   -9.6424 H        1 ZINC000016052714    0.4500
51     H51     5.9299   -3.6748   -8.0203 H        1 ZINC000016052714    0.1900
52     H52     8.9448    2.1100   -5.4546 H        1 ZINC000016052714    0.0700
53     H53     7.5253    2.1523   -4.3802 H        1 ZINC000016052714    0.0900
54     H54     9.2238    3.8886   -3.7759 H        1 ZINC000016052714    0.1100
55     H55     8.9617    2.7155   -2.4621 H        1 ZINC000016052714    0.0700
56     H56    12.0805    0.9644   -3.2050 H        1 ZINC000016052714    0.1100
57     H57    10.6676    0.9692   -2.1211 H        1 ZINC000016052714    0.0700
58     H58    10.4223   -0.8130   -3.8013 H        1 ZINC000016052714    0.1100
59     H59    10.6461    0.3685   -5.1146 H        1 ZINC000016052714    0.0700
60     H60     3.9020    0.0741   -2.6481 H        1 ZINC000016052714    0.1400
61     H61     2.6687    1.3234   -2.3532 H        1 ZINC000016052714    0.1400
62     H62     2.6786   -0.2299   -0.4680 H        1 ZINC000016052714    0.1400
63     H63     2.4971   -1.6195   -1.5713 H        1 ZINC000016052714    0.1000
@<TRIPOS>BOND
1     1     2     1
2     1     37    1
3     1     38    1
4     1     39    1
5     2     3     2
6     2     4     2
7     2     5     am
8     5     36    1
9     5     6     1
10    6     7     1
11    6     40    1
12    6     41    1
13    7     8     1
14    7     42    1
15    7     43    1
16    8     9     1
17    8     10    1
18    8     35    1
19    10    11    1
20    10    44    1
21    10    45    1
22    11    34    1
23    11    12    2
24    12    13    1
25    12    46    1
26    13    33    ar
27    13    14    ar
28    14    15    ar
29    15    16    1
30    15    25    ar
31    16    24    ar
32    16    17    ar
33    17    18    ar
34    17    47    1
35    18    19    ar
36    18    48    1
37    19    20    ar
38    19    49    1
39    20    24    ar
40    20    21    2
41    21    22    1
42    22    23    1
43    22    50    1
44    23    24    2
45    23    51    1
46    25    26    ar
47    26    27    1
48    26    33    ar
49    27    32    1
50    27    28    1
51    28    29    1
52    28    52    1
53    28    53    1
54    29    30    1
55    29    54    1
56    29    55    1
57    30    31    1
58    31    32    1
59    31    56    1
60    31    57    1
61    32    58    1
62    32    59    1
63    33    34    1
64    35    36    1
65    35    60    1
66    35    61    1
67    36    62    1
68    36    63    1
@<TRIPOS>SUBSTRUCTURE
1   ZINC000016052714 1     RESIDUE    1   A     ZIN   1
