@<TRIPOS>MOLECULE
ZINC000022042558
  54   56    0    0    0
SMALL
USER_CHARGES
NO_NAME
@<TRIPOS>ATOM
    1 C1        0.0914     1.4850    -0.5441 C.3    1 <0>      -0.1500
    2 C2       -0.0143     0.0142    -0.1361 C.3    1 <0>       0.0900
    3 H3        0.4801    -0.6065    -0.8833 H      1 <0>       0.0400
    4 C4        0.6602    -0.1880     1.2222 C.3    1 <0>      -0.0800
    5 C5        2.1285     0.1309     1.1064 C.ar   1 <0>      -0.0800
    6 C6        3.0107    -0.8306     0.6503 C.ar   1 <0>      -0.1200
    7 C7        4.3576    -0.5381     0.5441 C.ar   1 <0>      -0.1200
    8 C8        4.8221     0.7161     0.8935 C.ar   1 <0>      -0.1200
    9 C9        3.9398     1.6779     1.3487 C.ar   1 <0>      -0.1200
   10 C10       2.5923     1.3867     1.4509 C.ar   1 <0>      -0.1100
   11 N11      -1.4298    -0.3672    -0.0415 N.3    1 <0>      -0.5300
   12 C12      -1.5736    -1.7308     0.4873 C.3    1 <0>       0.0500
   13 C13      -3.0600    -2.0598     0.6449 C.3    1 <0>       0.0600
   14 N14      -3.7286    -1.9298    -0.6573 N.3    1 <0>      -0.5300
   15 C15      -5.1441    -2.3112    -0.5628 C.3    1 <0>       0.0900
   16 H16      -5.2274    -3.2786    -0.0676 H      1 <0>       0.0800
   17 C17      -5.9033    -1.2573     0.2458 C.3    1 <0>      -0.1900
   18 C18      -5.7421    -2.4043    -1.9680 C.3    1 <0>      -0.0700
   19 C19      -5.0768    -3.5255    -2.7238 C.ar   1 <0>      -0.0700
   20 C20      -3.9395    -3.2770    -3.4693 C.ar   1 <0>      -0.0900
   21 C21      -3.3291    -4.3054    -4.1626 C.ar   1 <0>      -0.1200
   22 C22      -3.8558    -5.5824    -4.1101 C.ar   1 <0>      -0.1300
   23 C23      -4.9926    -5.8311    -3.3638 C.ar   1 <0>      -0.1200
   24 C24      -5.6004    -4.8035    -2.6671 C.ar   1 <0>      -0.1200
   25 C25      -3.5848    -0.5662    -1.1861 C.3    1 <0>       0.0500
   26 C26      -2.0984    -0.2371    -1.3437 C.3    1 <0>       0.0600
   27 H27       1.1417     1.7680    -0.6142 H      1 <0>       0.0600
   28 H28      -0.3891     1.6291    -1.5118 H      1 <0>       0.0500
   29 H29      -0.4030     2.1058     0.2031 H      1 <0>       0.0600
   30 H30       0.2017     0.4732     1.9576 H      1 <0>       0.0800
   31 H31       0.5372    -1.2239     1.5383 H      1 <0>       0.0700
   32 H32       2.6478    -1.8105     0.3773 H      1 <0>       0.1200
   33 H33       5.0470    -1.2895     0.1884 H      1 <0>       0.1200
   34 H34       5.8745     0.9444     0.8111 H      1 <0>       0.1200
   35 H35       4.3028     2.6577     1.6220 H      1 <0>       0.1200
   36 H36       1.9029     2.1382     1.8065 H      1 <0>       0.1200
   37 H37      -1.1157    -2.4388    -0.2034 H      1 <0>       0.0400
   38 H38      -1.0813    -1.7984     1.4574 H      1 <0>       0.0800
   39 H39      -3.1697    -3.0811     1.0096 H      1 <0>       0.0800
   40 H40      -3.5120    -1.3687     1.3563 H      1 <0>       0.0400
   41 H41      -6.9536    -1.5403     0.3160 H      1 <0>       0.0600
   42 H42      -5.4772    -1.1910     1.2469 H      1 <0>       0.0600
   43 H43      -5.8200    -0.2899    -0.2494 H      1 <0>       0.0600
   44 H44      -6.8120    -2.5998    -1.8953 H      1 <0>       0.0800
   45 H45      -5.5796    -1.4642    -2.4951 H      1 <0>       0.0700
   46 H46      -3.5280    -2.2793    -3.5104 H      1 <0>       0.1200
   47 H47      -2.4410    -4.1112    -4.7456 H      1 <0>       0.1200
   48 H48      -3.3794    -6.3858    -4.6523 H      1 <0>       0.1200
   49 H49      -5.4042    -6.8287    -3.3231 H      1 <0>       0.1200
   50 H50      -6.4886    -4.9978    -2.0840 H      1 <0>       0.1200
   51 H51      -4.0770    -0.4986    -2.1563 H      1 <0>       0.0800
   52 H52      -4.0427     0.1419    -0.4954 H      1 <0>       0.0500
   53 H53      -1.9887     0.7841    -1.7084 H      1 <0>       0.0800
   54 H54      -1.6464    -0.9282    -2.0552 H      1 <0>       0.0400
@<TRIPOS>BOND
   1    1    2 1
   2    1   27 1
   3    1   28 1
   4    1   29 1
   5    2    3 1
   6    2    4 1
   7    2   11 1
   8    4    5 1
   9    4   30 1
  10    4   31 1
  11    5   10 ar
  12    5    6 ar
  13    6    7 ar
  14    6   32 1
  15    7    8 ar
  16    7   33 1
  17    8    9 ar
  18    8   34 1
  19    9   10 ar
  20    9   35 1
  21   10   36 1
  22   11   26 1
  23   11   12 1
  24   12   13 1
  25   12   37 1
  26   12   38 1
  27   13   14 1
  28   13   39 1
  29   13   40 1
  30   14   15 1
  31   14   25 1
  32   15   16 1
  33   15   17 1
  34   15   18 1
  35   17   41 1
  36   17   42 1
  37   17   43 1
  38   18   19 1
  39   18   44 1
  40   18   45 1
  41   19   24 ar
  42   19   20 ar
  43   20   21 ar
  44   20   46 1
  45   21   22 ar
  46   21   47 1
  47   22   23 ar
  48   22   48 1
  49   23   24 ar
  50   23   49 1
  51   24   50 1
  52   25   26 1
  53   25   51 1
  54   25   52 1
  55   26   53 1
  56   26   54 1
