@<TRIPOS>MOLECULE
ZINC000000005617
42    44    1     0     0
SMALL
USER_CHARGES
@<TRIPOS>ATOM
1      C1     -0.0187    1.5258    0.0104 C.3      1 ZINC000000005617   -0.1600
2      C2      0.0021   -0.0041    0.0020 C.3      1 ZINC000000005617   -0.1500
3      C3     -1.4333   -0.5336    0.0129 C.3      1 ZINC000000005617   -0.0100
4      N4     -1.4134   -2.0025    0.0048 N.4      1 ZINC000000005617   -0.3900
5      H5     -0.8621   -2.3390   -0.7704 H        1 ZINC000000005617    0.4300
6      C6     -0.8639   -2.5120    1.2803 C.3      1 ZINC000000005617   -0.0100
7      C7     -1.6357   -3.8018    1.6206 C.3      1 ZINC000000005617   -0.1300
8      C8     -2.6707   -3.9556    0.4886 C.3      1 ZINC000000005617   -0.0600
9      H9     -2.2834   -4.6273   -0.2775 H        1 ZINC000000005617    0.1300
10     C10    -3.9622   -4.4899    1.0265 C.ar     1 ZINC000000005617   -0.0200
11     C11    -5.0889   -3.7196    1.1872 C.ar     1 ZINC000000005617   -0.0900
12     C12    -6.2537   -4.2821    1.6933 C.ar     1 ZINC000000005617   -0.0800
13     C13    -6.3007   -5.6172    2.0429 C.ar     1 ZINC000000005617   -0.1100
14     C14    -5.1787   -6.4053    1.8882 C.ar     1 ZINC000000005617   -0.0800
15     C15    -4.0084   -5.8487    1.3805 C.ar     1 ZINC000000005617   -0.1300
16     C16    -2.8057   -6.6923    1.2143 C.2      1 ZINC000000005617    0.5600
17     N17    -2.8448   -7.9960    1.5540 N.am     1 ZINC000000005617   -0.8400
18     O18    -1.7816   -6.2101    0.7714 O.2      1 ZINC000000005617   -0.5500
19     C19    -5.1089   -2.2566    0.8270 C.3      1 ZINC000000005617   -0.0800
20     C20    -3.6895   -1.6966    0.8494 C.3      1 ZINC000000005617   -0.1400
21     C21    -2.8008   -2.5338   -0.0837 C.3      1 ZINC000000005617    0.0300
22     H22    -3.1731   -2.5241   -1.1080 H        1 ZINC000000005617    0.1500
23     H23     1.0039    1.9031    0.0027 H        1 ZINC000000005617    0.0800
24     H24    -0.5459    1.8868   -0.8726 H        1 ZINC000000005617    0.0700
25     H25    -0.5289    1.8773    0.9072 H        1 ZINC000000005617    0.0700
26     H26     0.5123   -0.3556   -0.8948 H        1 ZINC000000005617    0.0800
27     H27     0.5293   -0.3651    0.8851 H        1 ZINC000000005617    0.0800
28     H28    -1.9435   -0.1821    0.9097 H        1 ZINC000000005617    0.1300
29     H29    -1.9605   -0.1726   -0.8702 H        1 ZINC000000005617    0.1300
30     H30     0.1972   -2.7333    1.1657 H        1 ZINC000000005617    0.1300
31     H31    -1.0091   -1.7733    2.0687 H        1 ZINC000000005617    0.1300
32     H32    -0.9589   -4.6561    1.6341 H        1 ZINC000000005617    0.1300
33     H33    -2.1384   -3.7002    2.5825 H        1 ZINC000000005617    0.0900
34     H34    -7.1334   -3.6676    1.8151 H        1 ZINC000000005617    0.1400
35     H35    -7.2122   -6.0429    2.4357 H        1 ZINC000000005617    0.1400
36     H36    -5.2086   -7.4502    2.1596 H        1 ZINC000000005617    0.1300
37     H37    -3.6620   -8.3807    1.9075 H        1 ZINC000000005617    0.4000
38     H38    -2.0557   -8.5494    1.4449 H        1 ZINC000000005617    0.4100
39     H39    -5.5303   -2.1351   -0.1709 H        1 ZINC000000005617    0.0900
40     H40    -5.7232   -1.7149    1.5463 H        1 ZINC000000005617    0.1000
41     H41    -3.7007   -0.6618    0.5071 H        1 ZINC000000005617    0.1000
42     H42    -3.2964   -1.7411    1.8650 H        1 ZINC000000005617    0.0900
@<TRIPOS>BOND
1     1     2     1
2     1     23    1
3     1     24    1
4     1     25    1
5     2     3     1
6     2     26    1
7     2     27    1
8     3     4     1
9     3     28    1
10    3     29    1
11    4     5     1
12    4     21    1
13    4     6     1
14    6     7     1
15    6     30    1
16    6     31    1
17    7     8     1
18    7     32    1
19    7     33    1
20    8     9     1
21    8     21    1
22    8     10    1
23    10    15    ar
24    10    11    ar
25    11    12    ar
26    11    19    1
27    12    13    ar
28    12    34    1
29    13    14    ar
30    13    35    1
31    14    15    ar
32    14    36    1
33    15    16    1
34    16    17    am
35    16    18    2
36    17    37    1
37    17    38    1
38    19    20    1
39    19    39    1
40    19    40    1
41    20    21    1
42    20    41    1
43    20    42    1
44    21    22    1
@<TRIPOS>SUBSTRUCTURE
1   ZINC000000005617 1     RESIDUE    1   A     ZIN   1
