@<TRIPOS>MOLECULE
ZINC000011689410
  44   46    0    0    0
SMALL
USER_CHARGES
NO_NAME
@<TRIPOS>ATOM
    1 C1       -0.0184     1.5028     0.0103 C.3    1 <0>      -0.1200
    2 C2        0.0021    -0.0041     0.0020 C.ar   1 <0>      -0.0800
    3 C3        0.0057    -0.6887    -1.1989 C.ar   1 <0>      -0.1200
    4 C4        0.0245    -2.0709    -1.2065 C.ar   1 <0>      -0.1000
    5 C5        0.0400    -2.7685    -0.0132 C.ar   1 <0>      -0.1200
    6 C6        0.0600    -4.2753    -0.0215 C.3    1 <0>       0.2000
    7 H7       -0.2918    -4.6380    -0.9873 H      1 <0>       0.1200
    8 O8       -0.7941    -4.7687     1.0125 O.3    1 <0>      -0.5400
    9 C9        1.4670    -4.7604     0.2151 C.ar   1 <0>       0.1000
   10 N10       1.9790    -4.7018     1.4290 N.ar   1 <0>      -0.4700
   11 C11       3.2085    -5.1183     1.6786 C.ar   1 <0>       0.1300
   12 C12       3.9921    -5.6276     0.6769 C.ar   1 <0>      -0.1200
   13 C13       3.4960    -5.7065    -0.6152 C.ar   1 <0>      -0.0700
   14 C14       2.2001    -5.2654    -0.8424 C.ar   1 <0>      -0.1300
   15 C15       1.6039    -5.3263    -2.2251 C.3    1 <0>      -0.1200
   16 C16       5.3960    -6.1091     0.9734 C.3    1 <0>      -0.0800
   17 C17       6.2750    -4.8895     1.2642 C.3    1 <0>      -0.1100
   18 C18       6.1746    -4.4867     2.7222 C.3    1 <0>      -0.1200
   19 C19       4.8225    -3.9349     3.1286 C.3    1 <0>      -0.1100
   20 C20       3.7506    -5.0265     3.0909 C.3    1 <0>      -0.0700
   21 C21       0.0378    -2.0839     1.1877 C.ar   1 <0>      -0.0900
   22 C22       0.0229    -0.7016     1.1953 C.ar   1 <0>      -0.1200
   23 H23       1.0042     1.8801     0.0026 H      1 <0>       0.0700
   24 H24      -0.5455     1.8639    -0.8728 H      1 <0>       0.0700
   25 H25      -0.5286     1.8543     0.9071 H      1 <0>       0.0700
   26 H26      -0.0064    -0.1436    -2.1312 H      1 <0>       0.1200
   27 H27       0.0266    -2.6057    -2.1448 H      1 <0>       0.1200
   28 H28      -0.5401    -4.4848     1.9013 H      1 <0>       0.3800
   29 H29       4.0983    -6.1025    -1.4194 H      1 <0>       0.1400
   30 H30       1.1046    -6.2853    -2.3637 H      1 <0>       0.0800
   31 H31       0.8808    -4.5195    -2.3448 H      1 <0>       0.0700
   32 H32       2.3951    -5.2181    -2.9670 H      1 <0>       0.0700
   33 H33       5.3820    -6.7663     1.8429 H      1 <0>       0.0800
   34 H34       5.7889    -6.6466     0.1104 H      1 <0>       0.0700
   35 H35       7.3117    -5.1307     1.0295 H      1 <0>       0.0700
   36 H36       5.9512    -4.0571     0.6393 H      1 <0>       0.0600
   37 H37       6.3908    -5.3599     3.3377 H      1 <0>       0.0600
   38 H38       6.9321    -3.7295     2.9246 H      1 <0>       0.0600
   39 H39       4.8890    -3.5333     4.1397 H      1 <0>       0.0700
   40 H40       4.5422    -3.1342     2.4441 H      1 <0>       0.0600
   41 H41       2.9434    -4.7710     3.7773 H      1 <0>       0.0800
   42 H42       4.1905    -5.9818     3.3773 H      1 <0>       0.0800
   43 H43       0.0503    -2.6289     2.1200 H      1 <0>       0.1200
   44 H44       0.0211    -0.1667     2.1335 H      1 <0>       0.1200
@<TRIPOS>BOND
   1    1    2 1
   2    1   23 1
   3    1   24 1
   4    1   25 1
   5    2   22 ar
   6    2    3 ar
   7    3    4 ar
   8    3   26 1
   9    4    5 ar
  10    4   27 1
  11    5    6 1
  12    5   21 ar
  13    6    7 1
  14    6    8 1
  15    6    9 1
  16    8   28 1
  17    9   14 ar
  18    9   10 ar
  19   10   11 ar
  20   11   20 1
  21   11   12 ar
  22   12   13 ar
  23   12   16 1
  24   13   14 ar
  25   13   29 1
  26   14   15 1
  27   15   30 1
  28   15   31 1
  29   15   32 1
  30   16   17 1
  31   16   33 1
  32   16   34 1
  33   17   18 1
  34   17   35 1
  35   17   36 1
  36   18   19 1
  37   18   37 1
  38   18   38 1
  39   19   20 1
  40   19   39 1
  41   19   40 1
  42   20   41 1
  43   20   42 1
  44   21   22 ar
  45   21   43 1
  46   22   44 1
