@<TRIPOS>MOLECULE
ZINC000002041757
20    19    1     0     0
SMALL
USER_CHARGES
@<TRIPOS>ATOM
1      N1     -0.0116    1.0048    0.0076 N.4      1 ZINC000002041757   -0.6200
2      H2      0.0021   -0.0041    0.0020 H        1 ZINC000002041757    0.4300
3      H3      0.9350    1.3541    0.0004 H        1 ZINC000002041757    0.4400
4      H4     -0.4996    1.3391   -0.8099 H        1 ZINC000002041757    0.4100
5      C5     -0.6992    1.4786    1.2162 C.3      1 ZINC000002041757   -0.0400
6      H6     -1.7218    1.1013    1.2239 H        1 ZINC000002041757    0.1400
7      C7     -0.7199    3.0084    1.2246 C.3      1 ZINC000002041757   -0.1100
8      C8     -1.5654    3.5134    0.0537 C.3      1 ZINC000002041757   -0.1200
9      S9     -1.5900    5.3272    0.0637 S.3      1 ZINC000002041757   -0.1300
10     C10    -2.6230    5.7292   -1.3723 C.3      1 ZINC000002041757    0.4600
11     F11    -3.8954    5.1733   -1.2016 F        1 ZINC000002041757   -0.1700
12     F12    -2.7335    7.1186   -1.4929 F        1 ZINC000002041757   -0.1400
13     F13    -2.0368    5.2058   -2.5297 F        1 ZINC000002041757   -0.1700
14     C14     0.0297    0.9794    2.4371 C.2      1 ZINC000002041757    0.4900
15     O15     1.2338    0.7927    2.3944 O.co2    1 ZINC000002041757   -0.6600
16     O16    -0.5847    0.7621    3.4675 O.co2    1 ZINC000002041757   -0.6300
17     H17    -1.1502    3.3608    2.1620 H        1 ZINC000002041757    0.1200
18     H18     0.2979    3.3861    1.1273 H        1 ZINC000002041757    0.1000
19     H19    -1.1351    3.1611   -0.8837 H        1 ZINC000002041757    0.0900
20     H20    -2.5832    3.1357    0.1509 H        1 ZINC000002041757    0.1100
@<TRIPOS>BOND
1     1     2     1
2     1     3     1
3     1     4     1
4     1     5     1
5     5     6     1
6     5     7     1
7     5     14    1
8     7     8     1
9     7     17    1
10    7     18    1
11    8     9     1
12    8     19    1
13    8     20    1
14    9     10    1
15    10    11    1
16    10    12    1
17    10    13    1
18    14    15    ar
19    14    16    ar
@<TRIPOS>SUBSTRUCTURE
1   ZINC000002041757 1     RESIDUE    1   A     ZIN   1
