@<TRIPOS>MOLECULE
ZINC000003914981
  43   45    0    0    0
SMALL
USER_CHARGES
NO_NAME
@<TRIPOS>ATOM
    1 O1        0.0021    -0.0041     0.0020 O.2    1 <0>      -0.1300
    2 N2       -0.0144     1.2138     0.0087 N.pl3  1 <0>       0.0200
    3 O3        1.0320     1.8371     0.0021 O.2    1 <0>      -0.1300
    4 C4       -1.3062     1.9364     0.0188 C.ar   1 <0>      -0.0300
    5 C5       -1.3214     3.3198     0.0206 C.ar   1 <0>      -0.0100
    6 C6       -2.5219     3.9996     0.0295 C.ar   1 <0>      -0.1100
    7 C7       -3.7231     3.2883     0.0367 C.ar   1 <0>       0.1600
    8 N8       -4.9191     3.9573     0.0451 N.2    1 <0>      -0.1800
    9 N9       -4.9359     5.1972     0.0463 N.2    1 <0>      -0.1700
   10 C10      -6.2145     5.9124     0.0553 C.3    1 <0>       0.1500
   11 C11      -5.9611     7.3928     0.1788 C.ar   1 <0>      -0.0900
   12 C12      -4.9167     7.9745    -0.5158 C.ar   1 <0>      -0.0700
   13 C13      -4.6823     9.3314    -0.4042 C.ar   1 <0>      -0.1500
   14 C14      -5.4963    10.1104     0.4052 C.ar   1 <0>       0.1200
   15 O15      -5.2680    11.4455     0.5163 O.3    1 <0>      -0.5000
   16 C16      -6.5438     9.5244     1.1008 C.ar   1 <0>      -0.1400
   17 C17      -6.7770     8.1679     0.9821 C.ar   1 <0>      -0.0900
   18 C18      -6.9544     5.6347    -1.2279 C.ar   1 <0>      -0.1000
   19 C19      -6.2635     5.5763    -2.4242 C.ar   1 <0>      -0.0900
   20 C20      -6.9395     5.3220    -3.6018 C.ar   1 <0>      -0.1400
   21 C21      -8.3126     5.1246    -3.5833 C.ar   1 <0>       0.1200
   22 O22      -8.9797     4.8738    -4.7404 O.3    1 <0>      -0.5000
   23 C23      -9.0034     5.1832    -2.3817 C.ar   1 <0>      -0.1400
   24 C24      -8.3221     5.4331    -1.2061 C.ar   1 <0>      -0.0800
   25 C25      -3.7005     1.8921     0.0348 C.ar   1 <0>       0.0000
   26 N26      -4.9692     1.1296     0.0418 N.pl3  1 <0>       0.0200
   27 O27      -4.9479    -0.0882     0.0402 O.2    1 <0>      -0.1600
   28 O28      -6.0345     1.7201     0.0493 O.2    1 <0>      -0.0900
   29 C29      -2.4933     1.2251     0.0205 C.ar   1 <0>       0.0100
   30 H30      -0.3913     3.8688     0.0154 H      1 <0>       0.1800
   31 H31      -2.5323     5.0796     0.0313 H      1 <0>       0.1800
   32 H32      -6.8138     5.5745     0.9007 H      1 <0>       0.1200
   33 H33      -4.2833     7.3676    -1.1458 H      1 <0>       0.1300
   34 H34      -3.8660     9.7852    -0.9464 H      1 <0>       0.1300
   35 H35      -5.7402    11.9809    -0.1361 H      1 <0>       0.3900
   36 H36      -7.1787    10.1287     1.7318 H      1 <0>       0.1300
   37 H37      -7.5926     7.7113     1.5231 H      1 <0>       0.1300
   38 H38      -5.1946     5.7301    -2.4380 H      1 <0>       0.1200
   39 H39      -6.3995     5.2772    -4.5360 H      1 <0>       0.1300
   40 H40      -9.0467     3.9344    -4.9602 H      1 <0>       0.3900
   41 H41     -10.0723     5.0302    -2.3647 H      1 <0>       0.1400
   42 H42      -8.8593     5.4785    -0.2704 H      1 <0>       0.1300
   43 H43      -2.4744     0.1453     0.0187 H      1 <0>       0.1900
@<TRIPOS>BOND
   1    1    2 2
   2    2    3 2
   3    2    4 1
   4    4   29 ar
   5    4    5 ar
   6    5    6 ar
   7    5   30 1
   8    6    7 ar
   9    6   31 1
  10    7    8 1
  11    7   25 ar
  12    8    9 2
  13    9   10 1
  14   10   11 1
  15   10   18 1
  16   10   32 1
  17   11   17 ar
  18   11   12 ar
  19   12   13 ar
  20   12   33 1
  21   13   14 ar
  22   13   34 1
  23   14   15 1
  24   14   16 ar
  25   15   35 1
  26   16   17 ar
  27   16   36 1
  28   17   37 1
  29   18   24 ar
  30   18   19 ar
  31   19   20 ar
  32   19   38 1
  33   20   21 ar
  34   20   39 1
  35   21   22 1
  36   21   23 ar
  37   22   40 1
  38   23   24 ar
  39   23   41 1
  40   24   42 1
  41   25   26 1
  42   25   29 ar
  43   26   27 2
  44   26   28 2
  45   29   43 1
