@<TRIPOS>MOLECULE
ZINC000000039090
  27   27    0    0    0
SMALL
USER_CHARGES
NO_NAME
@<TRIPOS>ATOM
    1 C1       -0.0178     1.4648     0.0101 C.3    1 <0>      -0.0500
    2 N2        0.0021    -0.0041     0.0020 N.4    1 <0>      -0.5100
    3 H3        0.4901    -0.3383     0.8195 H      1 <0>       0.4300
    4 H4       -0.9445    -0.3533     0.0092 H      1 <0>       0.4400
    5 C5        0.6897    -0.4778    -1.2066 C.3    1 <0>      -0.0400
    6 C6        0.7104    -2.0077    -1.2150 C.3    1 <0>       0.1400
    7 H7        1.1585    -2.3700    -0.2898 H      1 <0>       0.1300
    8 O8       -0.6262    -2.5016    -1.3223 O.3    1 <0>      -0.5500
    9 C9        1.5209    -2.4926    -2.3893 C.ar   1 <0>      -0.1400
   10 C10       0.9575    -2.5217    -3.6510 C.ar   1 <0>      -0.1000
   11 C11       1.6970    -2.9663    -4.7317 C.ar   1 <0>      -0.1200
   12 C12       3.0056    -3.3832    -4.5510 C.ar   1 <0>       0.1100
   13 O13       3.7343    -3.8203    -5.6128 O.3    1 <0>      -0.4800
   14 C14       3.5731    -3.3535    -3.2804 C.ar   1 <0>       0.0900
   15 O15       4.8576    -3.7613    -3.0980 O.3    1 <0>      -0.4800
   16 C16       2.8286    -2.9021    -2.2030 C.ar   1 <0>      -0.1100
   17 H17       1.0047     1.8421     0.0024 H      1 <0>       0.1200
   18 H18      -0.5450     1.8259    -0.8730 H      1 <0>       0.1200
   19 H19      -0.5280     1.8163     0.9069 H      1 <0>       0.1300
   20 H20       0.1625    -0.1167    -2.0897 H      1 <0>       0.1400
   21 H21       1.7123    -0.1005    -1.2143 H      1 <0>       0.1400
   22 H22      -1.0871    -2.2181    -2.1237 H      1 <0>       0.3900
   23 H23      -0.0626    -2.1969    -3.7932 H      1 <0>       0.1300
   24 H24       1.2542    -2.9887    -5.7165 H      1 <0>       0.1400
   25 H25       4.2277    -3.1224    -6.0651 H      1 <0>       0.4000
   26 H26       5.5115    -3.0549    -3.1907 H      1 <0>       0.3900
   27 H27       3.2665    -2.8780    -1.2161 H      1 <0>       0.1400
@<TRIPOS>BOND
   1    1    2 1
   2    1   17 1
   3    1   18 1
   4    1   19 1
   5    2    3 1
   6    2    4 1
   7    2    5 1
   8    5    6 1
   9    5   20 1
  10    5   21 1
  11    6    7 1
  12    6    8 1
  13    6    9 1
  14    8   22 1
  15    9   16 ar
  16    9   10 ar
  17   10   11 ar
  18   10   23 1
  19   11   12 ar
  20   11   24 1
  21   12   13 1
  22   12   14 ar
  23   13   25 1
  24   14   15 1
  25   14   16 ar
  26   15   26 1
  27   16   27 1
