@<TRIPOS>MOLECULE
ZINC000071257465
  40   42    0    0    0
SMALL
USER_CHARGES
NO_NAME
@<TRIPOS>ATOM
    1 C1       -0.2365     1.5717    -0.0180 C.3    1 <0>      -0.0700
    2 C2       -0.1530     0.0671    -0.0017 C.ar   1 <0>      -0.0300
    3 C3       -0.0820    -0.6432    -1.2169 C.ar   1 <0>      -0.0100
    4 C4       -0.0861     0.0125    -2.4545 C.ar   1 <0>      -0.1500
    5 C5       -0.0143    -0.7292    -3.6147 C.ar   1 <0>       0.0900
    6 O6       -0.0181    -0.0970    -4.8166 O.3    1 <0>      -0.2600
    7 C7        1.0576     0.6685    -5.1382 C.ar   1 <0>       0.1300
    8 C8        2.1728     0.6818    -4.3126 C.ar   1 <0>      -0.1900
    9 C9        3.2652     1.4604    -4.6421 C.ar   1 <0>      -0.0800
   10 C10       3.2481     2.2261    -5.7933 C.ar   1 <0>      -0.1600
   11 C11       2.1381     2.2146    -6.6177 C.ar   1 <0>      -0.0900
   12 C12       1.0451     1.4337    -6.2956 C.ar   1 <0>      -0.1600
   13 C13       0.0627    -2.1242    -3.5682 C.ar   1 <0>      -0.1800
   14 C14       0.0679    -2.7845    -2.3773 C.ar   1 <0>      -0.0300
   15 C15      -0.0039    -2.0594    -1.1803 C.ar   1 <0>      -0.1400
   16 C16      -0.0014    -2.6960     0.0794 C.ar   1 <0>       0.3000
   17 O17       0.0715    -4.0452     0.1747 O.3    1 <0>      -0.6200
   18 C18      -0.0751    -1.9030     1.2225 C.ar   1 <0>      -0.1400
   19 C19      -0.0735    -2.5452     2.5489 C.2    1 <0>       0.5700
   20 O20      -0.0082    -3.7564     2.6380 O.2    1 <0>      -0.5500
   21 N21      -0.1444    -1.7904     3.6632 N.am   1 <0>      -0.7100
   22 C22      -0.1428    -2.4289     4.9818 C.3    1 <0>       0.0600
   23 C23      -0.2294    -1.3714     6.0520 C.2    1 <0>       0.4900
   24 O24      -0.2871    -0.1937     5.7421 O.co2  1 <0>      -0.6900
   25 O25      -0.2417    -1.6937     7.2278 O.co2  1 <0>      -0.7100
   26 N26      -0.1415    -0.5702     1.1395 N.ar   1 <0>      -0.3800
   27 H27       0.7692     1.9916    -0.0004 H      1 <0>       0.0500
   28 H28      -0.7504     1.8972    -0.9225 H      1 <0>       0.0500
   29 H29      -0.7888     1.9144     0.8569 H      1 <0>       0.0600
   30 H30      -0.1453     1.0900    -2.4996 H      1 <0>       0.1300
   31 H31       2.1866     0.0842    -3.4131 H      1 <0>       0.1400
   32 H32       4.1333     1.4715    -3.9997 H      1 <0>       0.1200
   33 H33       4.1031     2.8344    -6.0489 H      1 <0>       0.1200
   34 H34       2.1272     2.8135    -7.5164 H      1 <0>       0.1200
   35 H35       0.1785     1.4247    -6.9401 H      1 <0>       0.1300
   36 H36       0.1185    -2.6858    -4.4891 H      1 <0>       0.1200
   37 H37       0.1271    -3.8627    -2.3553 H      1 <0>       0.1300
   38 H38      -0.1965    -0.8244     3.5922 H      1 <0>       0.4100
   39 H39      -0.9991    -3.0984     5.0623 H      1 <0>       0.0500
   40 H40       0.7775    -2.9992     5.1082 H      1 <0>       0.0500
@<TRIPOS>BOND
   1    1    2 1
   2    1   27 1
   3    1   28 1
   4    1   29 1
   5    2   26 ar
   6    2    3 ar
   7    3   15 ar
   8    3    4 ar
   9    4    5 ar
  10    4   30 1
  11    5    6 1
  12    5   13 ar
  13    6    7 1
  14    7   12 ar
  15    7    8 ar
  16    8    9 ar
  17    8   31 1
  18    9   10 ar
  19    9   32 1
  20   10   11 ar
  21   10   33 1
  22   11   12 ar
  23   11   34 1
  24   12   35 1
  25   13   14 ar
  26   13   36 1
  27   14   15 ar
  28   14   37 1
  29   15   16 ar
  30   16   17 1
  31   16   18 ar
  32   18   19 1
  33   18   26 ar
  34   19   20 2
  35   19   21 am
  36   21   22 1
  37   21   38 1
  38   22   23 1
  39   22   39 1
  40   22   40 1
  41   23   24 ar
  42   23   25 ar
