@<TRIPOS>MOLECULE
ZINC000003982174
52    54    1     0     0
SMALL
USER_CHARGES
@<TRIPOS>ATOM
1      C1      3.6738    1.8792    0.3254 C.3      1 ZINC000003982174   -0.1500
2      C2      3.8756    0.3694    0.1822 C.3      1 ZINC000003982174   -0.1000
3      C3      4.8158   -0.1284    1.2838 C.3      1 ZINC000003982174   -0.1400
4      C4      4.9502   -1.6493    1.1833 C.3      1 ZINC000003982174    0.0000
5      N5      3.6311   -2.2725    1.3454 N.4      1 ZINC000003982174   -0.3800
6      H6      3.2318   -1.9877    2.2271 H        1 ZINC000003982174    0.4200
7      C7      3.7758   -3.7342    1.3243 C.3      1 ZINC000003982174    0.0000
8      C8      2.3940   -4.3848    1.4147 C.3      1 ZINC000003982174   -0.1900
9      C9      2.5515   -5.9021    1.5323 C.3      1 ZINC000003982174    0.1600
10     H10     3.1458   -6.2786    0.6997 H        1 ZINC000003982174    0.0900
11     C11     3.2366   -6.2567    2.8688 C.3      1 ZINC000003982174   -0.1300
12     C12     2.4902   -7.5429    3.3115 C.3      1 ZINC000003982174   -0.1300
13     C13     1.0513   -7.2536    2.8160 C.3      1 ZINC000003982174    0.1100
14     N14     1.2285   -6.5436    1.5325 N.am     1 ZINC000003982174   -1.0100
15     S15     0.1199   -6.4792    0.3040 S.o2     1 ZINC000003982174    2.7000
16     O16     0.8322   -6.0789   -0.8586 O.2      1 ZINC000003982174   -0.9700
17     O17    -0.6322   -7.6825    0.3789 O.2      1 ZINC000003982174   -0.9600
18     C18    -0.9979   -5.1696    0.6783 C.ar     1 ZINC000003982174   -0.6100
19     C19    -2.0723   -5.3974    1.5179 C.ar     1 ZINC000003982174   -0.1600
20     C20    -2.9513   -4.3716    1.8136 C.ar     1 ZINC000003982174   -0.0900
21     C21    -2.7578   -3.1165    1.2704 C.ar     1 ZINC000003982174   -0.2100
22     C22    -1.6802   -2.8853    0.4274 C.ar     1 ZINC000003982174    0.2500
23     O23    -1.4874   -1.6512   -0.1079 O.3      1 ZINC000003982174   -0.7300
24     C24    -0.7967   -3.9144    0.1369 C.ar     1 ZINC000003982174   -0.1900
25     C25     2.7456   -1.8556    0.2515 C.3      1 ZINC000003982174   -0.0200
26     C26     2.5264   -0.3426    0.3161 C.3      1 ZINC000003982174   -0.1400
27     H27     3.2440    2.0973    1.3031 H        1 ZINC000003982174    0.0600
28     H28     4.6347    2.3849    0.2300 H        1 ZINC000003982174    0.0600
29     H29     2.9989    2.2312   -0.4548 H        1 ZINC000003982174    0.0700
30     H30     4.3080    0.1504   -0.7941 H        1 ZINC000003982174    0.0900
31     H31     5.7960    0.3325    1.1614 H        1 ZINC000003982174    0.1100
32     H32     4.4071    0.1373    2.2587 H        1 ZINC000003982174    0.0900
33     H33     5.3592   -1.9139    0.2082 H        1 ZINC000003982174    0.1300
34     H34     5.6191   -2.0070    1.9661 H        1 ZINC000003982174    0.1300
35     H35     4.2605   -4.0380    0.3965 H        1 ZINC000003982174    0.1300
36     H36     4.3830   -4.0514    2.1722 H        1 ZINC000003982174    0.1300
37     H37     1.8702   -4.0048    2.2918 H        1 ZINC000003982174    0.1000
38     H38     1.8213   -4.1473    0.5182 H        1 ZINC000003982174    0.1000
39     H39     4.2968   -6.4590    2.7170 H        1 ZINC000003982174    0.0800
40     H40     3.0957   -5.4588    3.5980 H        1 ZINC000003982174    0.0800
41     H41     2.9033   -8.4233    2.8192 H        1 ZINC000003982174    0.0800
42     H42     2.5150   -7.6556    4.3953 H        1 ZINC000003982174    0.0900
43     H43     0.5089   -8.1862    2.6603 H        1 ZINC000003982174    0.0900
44     H44     0.5238   -6.6218    3.5307 H        1 ZINC000003982174    0.0700
45     H45    -2.2255   -6.3781    1.9433 H        1 ZINC000003982174    0.1100
46     H46    -3.7901   -4.5522    2.4695 H        1 ZINC000003982174    0.1000
47     H47    -3.4448   -2.3159    1.5014 H        1 ZINC000003982174    0.1000
48     H48     0.0429   -3.7370   -0.5190 H        1 ZINC000003982174    0.1100
49     H49     3.2016   -2.1158   -0.7037 H        1 ZINC000003982174    0.1300
50     H50     1.7869   -2.3656    0.3463 H        1 ZINC000003982174    0.1400
51     H51     2.0701   -0.0813    1.2709 H        1 ZINC000003982174    0.0900
52     H52     1.8701   -0.0348   -0.4980 H        1 ZINC000003982174    0.1200
@<TRIPOS>BOND
1     1     2     1
2     1     27    1
3     1     28    1
4     1     29    1
5     2     26    1
6     2     3     1
7     2     30    1
8     3     4     1
9     3     31    1
10    3     32    1
11    4     5     1
12    4     33    1
13    4     34    1
14    5     6     1
15    5     7     1
16    5     25    1
17    7     8     1
18    7     35    1
19    7     36    1
20    8     9     1
21    8     37    1
22    8     38    1
23    9     10    1
24    9     14    1
25    9     11    1
26    11    12    1
27    11    39    1
28    11    40    1
29    12    13    1
30    12    41    1
31    12    42    1
32    13    14    1
33    13    43    1
34    13    44    1
35    14    15    am
36    15    16    2
37    15    17    2
38    15    18    1
39    18    24    ar
40    18    19    ar
41    19    20    ar
42    19    45    1
43    20    21    ar
44    20    46    1
45    21    22    ar
46    21    47    1
47    22    23    1
48    22    24    ar
49    24    48    1
50    25    26    1
51    25    49    1
52    25    50    1
53    26    51    1
54    26    52    1
@<TRIPOS>SUBSTRUCTURE
1   ZINC000003982174 1     RESIDUE    1   A     ZIN   1
