@<TRIPOS>MOLECULE
ZINC000013986542
58    61    1     0     0
SMALL
USER_CHARGES
@<TRIPOS>ATOM
1      O1      0.0021   -0.0041    0.0020 O.2      1 ZINC000013986542   -0.5200
2      C2     -0.0144    1.2086    0.0087 C.2      1 ZINC000013986542    0.5000
3      C3      1.2803    1.9798    0.0005 C.3      1 ZINC000013986542    0.1000
4      H4      1.2828    2.6767   -0.8377 H        1 ZINC000013986542    0.1400
5      O5      2.3752    1.0711   -0.1323 O.3      1 ZINC000013986542   -0.5200
6      C6      1.4190    2.7575    1.3107 C.3      1 ZINC000013986542   -0.6600
7      S7      2.9020    3.7998    1.2411 S.o2     1 ZINC000013986542    2.5100
8      O8      4.0755    2.9984    1.2468 O.2      1 ZINC000013986542   -0.9100
9      O9      2.7331    4.8447    0.2931 O.2      1 ZINC000013986542   -0.9200
10     C10     2.9324    4.6258    2.7973 C.ar     1 ZINC000013986542   -0.6600
11     C11     2.2813    5.8496    2.9374 C.ar     1 ZINC000013986542   -0.0400
12     C12     2.2851    6.5135    4.1258 C.ar     1 ZINC000013986542   -0.1100
13     C13     2.9546    5.9590    5.2297 C.ar     1 ZINC000013986542    0.0000
14     C14     2.9798    6.6146    6.4725 C.ar     1 ZINC000013986542   -0.1100
15     C15     3.6386    6.0466    7.5206 C.ar     1 ZINC000013986542   -0.0100
16     Cl16    3.6671    6.8591    9.0544 Cl       1 ZINC000013986542   -0.0600
17     C17     4.2903    4.8213    7.3796 C.ar     1 ZINC000013986542   -0.1200
18     C18     4.2869    4.1589    6.1912 C.ar     1 ZINC000013986542   -0.0700
19     C19     3.6169    4.7139    5.0871 C.ar     1 ZINC000013986542   -0.0800
20     C20     3.5868    4.0559    3.8462 C.ar     1 ZINC000013986542    0.0200
21     N21    -1.1906    1.8666    0.0178 N.am     1 ZINC000013986542   -0.6000
22     C22    -1.2267    3.3354    0.0199 C.3      1 ZINC000013986542    0.1000
23     C23    -2.1074    3.8085   -1.1408 C.3      1 ZINC000013986542   -0.1600
24     C24    -3.4829    3.1458   -1.0354 C.3      1 ZINC000013986542    0.1700
25     N25    -4.3386    3.6215   -2.1251 N.am     1 ZINC000013986542   -0.6200
26     C26    -5.5824    4.3241   -1.8056 C.3      1 ZINC000013986542    0.1100
27     C27    -5.9083    5.3081   -2.9343 C.3      1 ZINC000013986542   -0.1500
28     C28    -5.9579    4.5348   -4.2564 C.3      1 ZINC000013986542    0.1100
29     N29    -4.6937    3.8207   -4.4429 N.am     1 ZINC000013986542   -0.7400
30     C30    -3.9639    3.4091   -3.3954 C.2      1 ZINC000013986542    0.7100
31     O31    -2.9264    2.8110   -3.6058 O.2      1 ZINC000013986542   -0.5900
32     C32    -3.3279    1.6265   -1.1348 C.3      1 ZINC000013986542   -0.1500
33     C33    -2.4611    1.1287    0.0199 C.3      1 ZINC000013986542    0.1200
34     H34     2.4351    0.4206    0.5807 H        1 ZINC000013986542    0.3900
35     H35     0.5400    3.3856    1.4553 H        1 ZINC000013986542    0.1500
36     H36     1.5058    2.0572    2.1415 H        1 ZINC000013986542    0.1500
37     H37     1.7663    6.2782    2.0904 H        1 ZINC000013986542    0.1500
38     H38     1.7765    7.4616    4.2196 H        1 ZINC000013986542    0.1400
39     H39     2.4798    7.5639    6.5958 H        1 ZINC000013986542    0.1400
40     H40     4.8056    4.3924    8.2263 H        1 ZINC000013986542    0.1400
41     H41     4.7964    3.2113    6.0966 H        1 ZINC000013986542    0.1500
42     H42     4.0835    3.1047    3.7239 H        1 ZINC000013986542    0.1500
43     H43    -1.6436    3.6893    0.9628 H        1 ZINC000013986542    0.0800
44     H44    -0.2168    3.7259   -0.1049 H        1 ZINC000013986542    0.0900
45     H45    -2.2208    4.8916   -1.0934 H        1 ZINC000013986542    0.0800
46     H46    -1.6419    3.5321   -2.0869 H        1 ZINC000013986542    0.1000
47     H47    -3.9372    3.4025   -0.0784 H        1 ZINC000013986542    0.0900
48     H48    -6.3932    3.6025   -1.7060 H        1 ZINC000013986542    0.0700
49     H49    -5.4624    4.8700   -0.8698 H        1 ZINC000013986542    0.0800
50     H50    -6.8757    5.7737   -2.7461 H        1 ZINC000013986542    0.1000
51     H51    -5.1345    6.0739   -2.9870 H        1 ZINC000013986542    0.0800
52     H52    -6.7798    3.8194   -4.2294 H        1 ZINC000013986542    0.0700
53     H53    -6.1075    5.2320   -5.0808 H        1 ZINC000013986542    0.0800
54     H54    -4.3754    3.6451   -5.3421 H        1 ZINC000013986542    0.4200
55     H55    -4.3100    1.1566   -1.0831 H        1 ZINC000013986542    0.0800
56     H56    -2.8510    1.3706   -2.0809 H        1 ZINC000013986542    0.1000
57     H57    -2.2665    0.0631   -0.1024 H        1 ZINC000013986542    0.1000
58     H58    -2.9762    1.3021    0.9647 H        1 ZINC000013986542    0.0700
@<TRIPOS>BOND
1     1     2     2
2     2     3     1
3     2     21    am
4     3     4     1
5     3     5     1
6     3     6     1
7     5     34    1
8     6     7     1
9     6     35    1
10    6     36    1
11    7     8     2
12    7     9     2
13    7     10    1
14    10    20    ar
15    10    11    ar
16    11    12    ar
17    11    37    1
18    12    13    ar
19    12    38    1
20    13    19    ar
21    13    14    ar
22    14    15    ar
23    14    39    1
24    15    16    1
25    15    17    ar
26    17    18    ar
27    17    40    1
28    18    19    ar
29    18    41    1
30    19    20    ar
31    20    42    1
32    21    33    1
33    21    22    1
34    22    23    1
35    22    43    1
36    22    44    1
37    23    24    1
38    23    45    1
39    23    46    1
40    24    25    1
41    24    32    1
42    24    47    1
43    25    30    am
44    25    26    1
45    26    27    1
46    26    48    1
47    26    49    1
48    27    28    1
49    27    50    1
50    27    51    1
51    28    29    1
52    28    52    1
53    28    53    1
54    29    30    am
55    29    54    1
56    30    31    2
57    32    33    1
58    32    55    1
59    32    56    1
60    33    57    1
61    33    58    1
@<TRIPOS>SUBSTRUCTURE
1   ZINC000013986542 1     RESIDUE    1   A     ZIN   1
