@<TRIPOS>MOLECULE
ZINC000072190148
36    37    1     0     0
SMALL
USER_CHARGES
@<TRIPOS>ATOM
1      C1     -0.0187    1.5258    0.0104 C.3      1 ZINC000072190148   -0.1500
2      C2      0.0021   -0.0041    0.0020 C.3      1 ZINC000072190148   -0.6300
3      S3     -1.6997   -0.6320    0.0149 S.o2     1 ZINC000072190148    2.6100
4      O4     -2.3254   -0.3511    1.2594 O.2      1 ZINC000072190148   -0.9500
5      O5     -2.3491   -0.3378   -1.2144 O.2      1 ZINC000072190148   -0.9500
6      N6     -1.5324   -2.2794    0.0044 N.am     1 ZINC000072190148   -1.0000
7      C7     -1.4628   -3.0168   -1.2645 C.3      1 ZINC000072190148    0.1300
8      C8     -0.2010   -3.8855   -1.2614 C.3      1 ZINC000072190148   -0.1300
9      C9     -0.2024   -4.7756   -0.0165 C.3      1 ZINC000072190148    0.0900
10     O10     0.9573   -5.6105   -0.0269 O.3      1 ZINC000072190148   -0.3000
11     C11     0.8486   -6.8235    0.5717 C.ar     1 ZINC000072190148    0.3300
12     C12     1.9434   -7.6772    0.5989 C.ar     1 ZINC000072190148   -0.1800
13     C13     1.8200   -8.9118    1.2124 C.ar     1 ZINC000072190148   -0.0300
14     C14     0.5985   -9.2500    1.7801 C.ar     1 ZINC000072190148   -0.1300
15     Cl15    0.3894  -10.7855    2.5626 Cl       1 ZINC000072190148   -0.0500
16     C16    -0.4485   -8.3503    1.7156 C.ar     1 ZINC000072190148    0.1600
17     N17    -0.2976   -7.1786    1.1282 N.ar     1 ZINC000072190148   -0.5300
18     C18    -0.1892   -3.9002    1.2387 C.3      1 ZINC000072190148   -0.1500
19     C19    -1.4447   -3.0310    1.2639 C.3      1 ZINC000072190148    0.1300
20     H20     1.0039    1.9031    0.0027 H        1 ZINC000072190148    0.0800
21     H21    -0.5459    1.8868   -0.8726 H        1 ZINC000072190148    0.0700
22     H22    -0.5289    1.8773    0.9072 H        1 ZINC000072190148    0.0700
23     H23     0.5123   -0.3556   -0.8948 H        1 ZINC000072190148    0.1300
24     H24     0.5293   -0.3651    0.8851 H        1 ZINC000072190148    0.1300
25     H25    -2.3431   -3.6513   -1.3672 H        1 ZINC000072190148    0.0800
26     H26    -1.4191   -2.3119   -2.0948 H        1 ZINC000072190148    0.1000
27     H27    -0.1868   -4.5096   -2.1549 H        1 ZINC000072190148    0.0900
28     H28     0.6813   -3.2455   -1.2500 H        1 ZINC000072190148    0.0800
29     H29    -1.0976   -5.3976   -0.0158 H        1 ZINC000072190148    0.1000
30     H30     2.8788   -7.3819    0.1469 H        1 ZINC000072190148    0.1500
31     H31     2.6544   -9.5966    1.2485 H        1 ZINC000072190148    0.1500
32     H32    -1.4007   -8.6078    2.1553 H        1 ZINC000072190148    0.1700
33     H33    -0.1666   -4.5347    2.1247 H        1 ZINC000072190148    0.0800
34     H34     0.6930   -3.2600    1.2265 H        1 ZINC000072190148    0.0700
35     H35    -1.3917   -2.3366    2.1024 H        1 ZINC000072190148    0.1000
36     H36    -2.3257   -3.6645    1.3667 H        1 ZINC000072190148    0.0800
@<TRIPOS>BOND
1     1     2     1
2     1     20    1
3     1     21    1
4     1     22    1
5     2     3     1
6     2     23    1
7     2     24    1
8     3     4     2
9     3     5     2
10    3     6     am
11    6     19    1
12    6     7     1
13    7     8     1
14    7     25    1
15    7     26    1
16    8     9     1
17    8     27    1
18    8     28    1
19    9     10    1
20    9     18    1
21    9     29    1
22    10    11    1
23    11    17    ar
24    11    12    ar
25    12    13    ar
26    12    30    1
27    13    14    ar
28    13    31    1
29    14    15    1
30    14    16    ar
31    16    17    ar
32    16    32    1
33    18    19    1
34    18    33    1
35    18    34    1
36    19    35    1
37    19    36    1
@<TRIPOS>SUBSTRUCTURE
1   ZINC000072190148 1     RESIDUE    1   A     ZIN   1
