@<TRIPOS>MOLECULE
ZINC000013888387
59    62    1     0     0
SMALL
USER_CHARGES
@<TRIPOS>ATOM
1      O1     -0.8978   -1.2386    0.8628 O.co2    1 ZINC000013888387   -0.6700
2      C2     -1.5593   -0.9258    1.8380 C.2      1 ZINC000013888387    0.5100
3      O3     -1.3148   -1.4210    2.9249 O.co2    1 ZINC000013888387   -0.6900
4      C4     -2.6753    0.0777    1.7011 C.3      1 ZINC000013888387   -0.1500
5      S5     -2.7827    0.6311   -0.0231 S.3      1 ZINC000013888387   -0.1800
6      C6     -4.2497    1.6981   -0.0186 C.3      1 ZINC000013888387   -0.0500
7      H7     -4.1474    2.4532    0.7609 H        1 ZINC000013888387    0.0800
8      C8     -4.3851    2.3848   -1.3791 C.3      1 ZINC000013888387   -0.0900
9      C9     -3.2073    3.3387   -1.5884 C.3      1 ZINC000013888387   -0.1200
10     C10    -3.2803    3.9384   -2.9941 C.3      1 ZINC000013888387   -0.0800
11     C11    -2.1202    4.8779   -3.2003 C.ar     1 ZINC000013888387   -0.0800
12     C12    -2.2456    6.2141   -2.8686 C.ar     1 ZINC000013888387   -0.1200
13     C13    -1.1814    7.0759   -3.0578 C.ar     1 ZINC000013888387   -0.1200
14     C14     0.0081    6.6015   -3.5781 C.ar     1 ZINC000013888387   -0.1300
15     C15     0.1338    5.2652   -3.9089 C.ar     1 ZINC000013888387   -0.1200
16     C16    -0.9290    4.4025   -3.7158 C.ar     1 ZINC000013888387   -0.1100
17     C17    -5.4765    0.8644    0.2476 C.ar     1 ZINC000013888387   -0.1000
18     C18    -5.8096   -0.1670   -0.6109 C.ar     1 ZINC000013888387   -0.0500
19     C19    -6.9337   -0.9327   -0.3690 C.ar     1 ZINC000013888387   -0.1500
20     C20    -7.7283   -0.6664    0.7366 C.ar     1 ZINC000013888387    0.1200
21     O21    -8.8343   -1.4186    0.9769 O.3      1 ZINC000013888387   -0.3100
22     C22    -9.6053   -1.0875    2.1336 C.3      1 ZINC000013888387    0.1100
23     C23   -10.7835   -2.0214    2.2362 C.ar     1 ZINC000013888387    0.1600
24     C24   -10.9505   -3.0108    1.2701 C.ar     1 ZINC000013888387   -0.1500
25     C25   -12.0125   -3.8667    1.3473 C.ar     1 ZINC000013888387   -0.0600
26     C26   -12.9125   -3.7132    2.4183 C.ar     1 ZINC000013888387   -0.1000
27     C27   -14.0266   -4.5556    2.5637 C.ar     1 ZINC000013888387   -0.1000
28     C28   -14.8739   -4.3752    3.6138 C.ar     1 ZINC000013888387   -0.1200
29     C29   -14.6505   -3.3650    4.5475 C.ar     1 ZINC000013888387   -0.1000
30     C30   -13.5811   -2.5309    4.4374 C.ar     1 ZINC000013888387   -0.0900
31     C31   -12.6832   -2.6853    3.3665 C.ar     1 ZINC000013888387    0.1300
32     N32   -11.6213   -1.8845    3.2355 N.ar     1 ZINC000013888387   -0.4700
33     C33    -7.3916    0.3687    1.5967 C.ar     1 ZINC000013888387   -0.2100
34     C34    -6.2638    1.1285    1.3531 C.ar     1 ZINC000013888387   -0.0800
35     H35    -3.6179   -0.3851    1.9935 H        1 ZINC000013888387    0.0700
36     H36    -2.4754    0.9336    2.3456 H        1 ZINC000013888387    0.0700
37     H37    -4.3875    1.6320   -2.1674 H        1 ZINC000013888387    0.0700
38     H38    -5.3182    2.9472   -1.4110 H        1 ZINC000013888387    0.0700
39     H39    -3.2518    4.1386   -0.8494 H        1 ZINC000013888387    0.0600
40     H40    -2.2717    2.7911   -1.4752 H        1 ZINC000013888387    0.0800
41     H41    -3.2358    3.1385   -3.7332 H        1 ZINC000013888387    0.0700
42     H42    -4.2160    4.4860   -3.1073 H        1 ZINC000013888387    0.0700
43     H43    -3.1750    6.5847   -2.4621 H        1 ZINC000013888387    0.1200
44     H44    -1.2796    8.1199   -2.7993 H        1 ZINC000013888387    0.1200
45     H45     0.8393    7.2750   -3.7265 H        1 ZINC000013888387    0.1200
46     H46     1.0630    4.8947   -4.3157 H        1 ZINC000013888387    0.1200
47     H47    -0.8308    3.3585   -3.9742 H        1 ZINC000013888387    0.1200
48     H48    -5.1907   -0.3739   -1.4714 H        1 ZINC000013888387    0.1400
49     H49    -7.1939   -1.7378   -1.0403 H        1 ZINC000013888387    0.1300
50     H50    -8.9847   -1.1863    3.0243 H        1 ZINC000013888387    0.0900
51     H51    -9.9616   -0.0607    2.0511 H        1 ZINC000013888387    0.0900
52     H52   -10.2413   -3.1010    0.4606 H        1 ZINC000013888387    0.1500
53     H53   -12.1576   -4.6393    0.6068 H        1 ZINC000013888387    0.1400
54     H54   -14.2104   -5.3418    1.8463 H        1 ZINC000013888387    0.1300
55     H55   -15.7307   -5.0233    3.7247 H        1 ZINC000013888387    0.1300
56     H56   -15.3375   -3.2420    5.3717 H        1 ZINC000013888387    0.1300
57     H57   -13.4229   -1.7529    5.1696 H        1 ZINC000013888387    0.1400
58     H58    -8.0088    0.5782    2.4579 H        1 ZINC000013888387    0.1300
59     H59    -6.0011    1.9342    2.0226 H        1 ZINC000013888387    0.1200
@<TRIPOS>BOND
1     1     2     ar
2     2     3     ar
3     2     4     1
4     4     5     1
5     4     35    1
6     4     36    1
7     5     6     1
8     6     7     1
9     6     8     1
10    6     17    1
11    8     9     1
12    8     37    1
13    8     38    1
14    9     10    1
15    9     39    1
16    9     40    1
17    10    11    1
18    10    41    1
19    10    42    1
20    11    16    ar
21    11    12    ar
22    12    13    ar
23    12    43    1
24    13    14    ar
25    13    44    1
26    14    15    ar
27    14    45    1
28    15    16    ar
29    15    46    1
30    16    47    1
31    17    34    ar
32    17    18    ar
33    18    19    ar
34    18    48    1
35    19    20    ar
36    19    49    1
37    20    21    1
38    20    33    ar
39    21    22    1
40    22    23    1
41    22    50    1
42    22    51    1
43    23    32    ar
44    23    24    ar
45    24    25    ar
46    24    52    1
47    25    26    ar
48    25    53    1
49    26    31    ar
50    26    27    ar
51    27    28    ar
52    27    54    1
53    28    29    ar
54    28    55    1
55    29    30    ar
56    29    56    1
57    30    31    ar
58    30    57    1
59    31    32    ar
60    33    34    ar
61    33    58    1
62    34    59    1
@<TRIPOS>SUBSTRUCTURE
1   ZINC000013888387 1     RESIDUE    1   A     ZIN   1
