@<TRIPOS>MOLECULE
ZINC000006358714
  59   61    0    0    0
SMALL
USER_CHARGES
NO_NAME
@<TRIPOS>ATOM
    1 C1       -0.7080    -0.5538     1.3827 C.3    1 <0>      -0.1500
    2 C2        0.7132    -0.2667     0.8942 C.3    1 <0>      -0.1200
    3 C3        0.8298    -0.6424    -0.5844 C.3    1 <0>      -0.0400
    4 H4        0.0868    -0.0898    -1.1594 H      1 <0>       0.0800
    5 C5        0.5925    -2.1216    -0.7471 C.ar   1 <0>      -0.0600
    6 C6        1.4125    -3.0283    -0.1017 C.ar   1 <0>      -0.1200
    7 C7        1.1948    -4.3852    -0.2510 C.ar   1 <0>      -0.1200
    8 C8        0.1569    -4.8355    -1.0453 C.ar   1 <0>      -0.1300
    9 C9       -0.6636    -3.9288    -1.6900 C.ar   1 <0>      -0.1200
   10 C10      -0.4485    -2.5718    -1.5373 C.ar   1 <0>      -0.1100
   11 C11       2.2304    -0.2918    -1.0907 C.3    1 <0>       0.0000
   12 H12       2.9709    -0.8770    -0.5454 H      1 <0>       0.0900
   13 C13       2.3261    -0.6056    -2.5615 C.ar   1 <0>      -0.0600
   14 C14       1.3836    -0.1019    -3.4384 C.ar   1 <0>      -0.1100
   15 C15       1.4713    -0.3898    -4.7876 C.ar   1 <0>      -0.1200
   16 C16       2.5018    -1.1810    -5.2600 C.ar   1 <0>      -0.1200
   17 C17       3.4447    -1.6840    -4.3832 C.ar   1 <0>      -0.1200
   18 C18       3.3594    -1.3926    -3.0346 C.ar   1 <0>      -0.1100
   19 C19       2.4906     1.1764    -0.8724 C.ar   1 <0>      -0.1100
   20 C20       3.6388     1.5842    -0.2188 C.ar   1 <0>      -0.0700
   21 C21       3.8796     2.9295    -0.0175 C.ar   1 <0>      -0.1500
   22 C22       2.9684     3.8717    -0.4720 C.ar   1 <0>       0.1300
   23 O23       3.2032     5.1958    -0.2755 O.3    1 <0>      -0.3000
   24 C24       2.2218     6.1091    -0.7703 C.3    1 <0>       0.0600
   25 C25       2.6561     7.5426    -0.4583 C.3    1 <0>       0.0500
   26 N26       3.8855     7.8541    -1.1996 N.3    1 <0>      -0.5400
   27 C27       3.6373     7.8714    -2.6473 C.3    1 <0>       0.0200
   28 C28       4.4634     9.1274    -0.7493 C.3    1 <0>       0.0200
   29 C29       1.8173     3.4600    -1.1279 C.ar   1 <0>      -0.2100
   30 C30       1.5835     2.1137    -1.3310 C.ar   1 <0>      -0.0700
   31 H31      -1.4125     0.0794     0.8433 H      1 <0>       0.0500
   32 H32      -0.9495    -1.6014     1.2025 H      1 <0>       0.0600
   33 H33      -0.7746    -0.3440     2.4502 H      1 <0>       0.0500
   34 H34       0.9327     0.7937     1.0181 H      1 <0>       0.0700
   35 H35       1.4230    -0.8551     1.4756 H      1 <0>       0.0600
   36 H36       2.2234    -2.6765     0.5189 H      1 <0>       0.1200
   37 H37       1.8359    -5.0936     0.2527 H      1 <0>       0.1200
   38 H38      -0.0127    -5.8956    -1.1625 H      1 <0>       0.1200
   39 H39      -1.4742    -4.2806    -2.3108 H      1 <0>       0.1200
   40 H40      -1.0896    -1.8635    -2.0410 H      1 <0>       0.1200
   41 H41       0.5786     0.5162    -3.0694 H      1 <0>       0.1200
   42 H42       0.7346     0.0031    -5.4726 H      1 <0>       0.1200
   43 H43       2.5699    -1.4065    -6.3140 H      1 <0>       0.1200
   44 H44       4.2496    -2.3024    -4.7522 H      1 <0>       0.1200
   45 H45       4.0962    -1.7855    -2.3496 H      1 <0>       0.1200
   46 H46       4.3478     0.8503     0.1349 H      1 <0>       0.1300
   47 H47       4.7762     3.2475     0.4937 H      1 <0>       0.1300
   48 H48       2.1221     5.9862    -1.8487 H      1 <0>       0.0600
   49 H49       1.2637     5.9074    -0.2914 H      1 <0>       0.0700
   50 H50       1.8676     8.2340    -0.7556 H      1 <0>       0.0600
   51 H51       2.8418     7.6414     0.6112 H      1 <0>       0.0900
   52 H52       2.8884     8.6288    -2.8786 H      1 <0>       0.0300
   53 H53       4.5638     8.1044    -3.1721 H      1 <0>       0.0700
   54 H54       3.2755     6.8937    -2.9656 H      1 <0>       0.0700
   55 H55       4.7022     9.0628     0.3123 H      1 <0>       0.0700
   56 H56       5.3724     9.3338    -1.3143 H      1 <0>       0.0700
   57 H57       3.7444     9.9304    -0.9118 H      1 <0>       0.0300
   58 H58       1.1063     4.1916    -1.4824 H      1 <0>       0.1200
   59 H59       0.6877     1.7928    -1.8419 H      1 <0>       0.1200
@<TRIPOS>BOND
   1    1    2 1
   2    1   31 1
   3    1   32 1
   4    1   33 1
   5    2    3 1
   6    2   34 1
   7    2   35 1
   8    3    4 1
   9    3    5 1
  10    3   11 1
  11    5   10 ar
  12    5    6 ar
  13    6    7 ar
  14    6   36 1
  15    7    8 ar
  16    7   37 1
  17    8    9 ar
  18    8   38 1
  19    9   10 ar
  20    9   39 1
  21   10   40 1
  22   11   12 1
  23   11   13 1
  24   11   19 1
  25   13   18 ar
  26   13   14 ar
  27   14   15 ar
  28   14   41 1
  29   15   16 ar
  30   15   42 1
  31   16   17 ar
  32   16   43 1
  33   17   18 ar
  34   17   44 1
  35   18   45 1
  36   19   30 ar
  37   19   20 ar
  38   20   21 ar
  39   20   46 1
  40   21   22 ar
  41   21   47 1
  42   22   23 1
  43   22   29 ar
  44   23   24 1
  45   24   25 1
  46   24   48 1
  47   24   49 1
  48   25   26 1
  49   25   50 1
  50   25   51 1
  51   26   27 1
  52   26   28 1
  53   27   52 1
  54   27   53 1
  55   27   54 1
  56   28   55 1
  57   28   56 1
  58   28   57 1
  59   29   30 ar
  60   29   58 1
  61   30   59 1
