@<TRIPOS>MOLECULE
ZINC000029212828
89    94    1     0     0
SMALL
USER_CHARGES
@<TRIPOS>ATOM
1      C1     -0.0184    1.5028    0.0103 C.3      1 ZINC000029212828   -0.1100
2      C2      0.0021   -0.0041    0.0020 C.ar     1 ZINC000029212828   -0.0600
3      C3      0.0058   -0.6807   -1.1750 C.ar     1 ZINC000029212828   -0.0900
4      C4      0.0244   -2.0758   -1.2194 C.ar     1 ZINC000029212828   -0.0800
5      C5      0.0393   -2.8257   -0.0882 C.ar     1 ZINC000029212828   -0.0900
6      C6      0.0366   -2.1874    1.1712 C.ar     1 ZINC000029212828    0.1100
7      N7      0.0516   -2.8919    2.2973 N.ar     1 ZINC000029212828   -0.4000
8      C8      0.0491   -2.2596    3.4658 C.ar     1 ZINC000029212828    0.1000
9      C9      0.0653   -2.9751    4.6830 C.ar     1 ZINC000029212828   -0.0300
10     C10     0.0625   -2.3172    5.8701 C.ar     1 ZINC000029212828   -0.1300
11     C11     0.0443   -0.9294    5.9568 C.ar     1 ZINC000029212828   -0.0400
12     C12     0.0275   -0.1377    4.8200 C.ar     1 ZINC000029212828   -0.1200
13     C13     0.0077    1.3327    4.9266 C.2      1 ZINC000029212828    0.5700
14     O14    -0.0069    2.0151    3.9203 O.2      1 ZINC000029212828   -0.4800
15     N15     0.0059    1.9204    6.1395 N.am     1 ZINC000029212828   -0.7400
16     C16    -0.0138    3.3815    6.2454 C.3      1 ZINC000029212828    0.1000
17     C17    -0.0117    3.7859    7.7210 C.3      1 ZINC000029212828   -0.0200
18     N18    -0.0314    5.2509    7.8272 N.4      1 ZINC000029212828   -0.3800
19     H19     0.7399    5.6365    7.3033 H        1 ZINC000029212828    0.4300
20     C20    -1.2966    5.7642    7.2853 C.3      1 ZINC000029212828   -0.0600
21     C21     0.0912    5.6412    9.2381 C.3      1 ZINC000029212828    0.0000
22     C22     0.1961    7.1643    9.3386 C.3      1 ZINC000029212828   -0.1900
23     C23     0.3238    7.5709   10.8081 C.3      1 ZINC000029212828    0.0000
24     N24     0.4245    9.0332   10.9046 N.4      1 ZINC000029212828   -0.3800
25     H25    -0.3633    9.4562   10.4371 H        1 ZINC000029212828    0.4300
26     C26     1.6701    9.4814   10.2677 C.3      1 ZINC000029212828   -0.0600
27     C27     0.4266    9.4317   12.3185 C.3      1 ZINC000029212828   -0.0200
28     C28     0.4057   10.9583   12.4182 C.3      1 ZINC000029212828    0.1000
29     N29     0.4078   11.3556   13.8283 N.am     1 ZINC000029212828   -0.7400
30     C30     0.3913   12.6617   14.1604 C.2      1 ZINC000029212828    0.5700
31     O31     0.3746   13.5103   13.2896 O.2      1 ZINC000029212828   -0.4800
32     C32     0.3934   13.0616   15.5795 C.ar     1 ZINC000029212828   -0.1200
33     C33     0.4180   12.1076   16.5832 C.ar     1 ZINC000029212828   -0.0400
34     C34     0.4207   12.4712   17.9260 C.ar     1 ZINC000029212828   -0.1300
35     C35     0.3997   13.7656   18.3321 C.ar     1 ZINC000029212828   -0.0300
36     C36     0.3733   14.8146   17.3865 C.ar     1 ZINC000029212828    0.1000
37     N37     0.3522   16.0856   17.7715 N.ar     1 ZINC000029212828   -0.4000
38     C38     0.3276   17.0475   16.8551 C.ar     1 ZINC000029212828    0.1100
39     C39     0.3054   18.4086   17.2279 C.ar     1 ZINC000029212828   -0.0900
40     C40     0.2810   19.3665   16.2662 C.ar     1 ZINC000029212828   -0.0800
41     C41     0.2766   19.0433   14.9087 C.ar     1 ZINC000029212828   -0.0900
42     C42     0.2971   17.7542   14.4819 C.ar     1 ZINC000029212828   -0.0600
43     C43     0.2916   17.4437   13.0072 C.3      1 ZINC000029212828   -0.1100
44     C44     0.3237   16.7080   15.4271 C.ar     1 ZINC000029212828    0.1100
45     N45     0.3448   15.4345   15.0426 N.ar     1 ZINC000029212828   -0.3800
46     C46     0.3755   14.4777   15.9584 C.ar     1 ZINC000029212828    0.1300
47     C47     0.0298   -0.7932    3.5091 C.ar     1 ZINC000029212828    0.1300
48     N48     0.0149   -0.0881    2.3874 N.ar     1 ZINC000029212828   -0.3800
49     C49     0.0233   -0.7203    1.2172 C.ar     1 ZINC000029212828    0.1100
50     H50     1.0042    1.8801    0.0026 H        1 ZINC000029212828    0.0700
51     H51    -0.5455    1.8639   -0.8728 H        1 ZINC000029212828    0.0700
52     H52    -0.5286    1.8543    0.9071 H        1 ZINC000029212828    0.0800
53     H53    -0.0064   -0.1251   -2.1011 H        1 ZINC000029212828    0.1400
54     H54     0.0266   -2.5714   -2.1789 H        1 ZINC000029212828    0.1400
55     H55     0.0528   -3.9038   -0.1510 H        1 ZINC000029212828    0.1500
56     H56     0.0796   -4.0549    4.6693 H        1 ZINC000029212828    0.1500
57     H57     0.0745   -2.8940    6.7831 H        1 ZINC000029212828    0.1500
58     H58     0.0428   -0.4596    6.9292 H        1 ZINC000029212828    0.1300
59     H59     0.0175    1.3761    6.9422 H        1 ZINC000029212828    0.4100
60     H60     0.8681    3.7932    5.7546 H        1 ZINC000029212828    0.0900
61     H61    -0.9117    3.7687    5.7638 H        1 ZINC000029212828    0.0900
62     H62    -0.8936    3.3741    8.2118 H        1 ZINC000029212828    0.1400
63     H63     0.8862    3.3987    8.2026 H        1 ZINC000029212828    0.1400
64     H64    -2.1299    5.3477    7.8513 H        1 ZINC000029212828    0.1300
65     H65    -1.3112    6.8513    7.3641 H        1 ZINC000029212828    0.1300
66     H66    -1.3876    5.4746    6.2385 H        1 ZINC000029212828    0.1400
67     H67    -0.7867    5.3005    9.7870 H        1 ZINC000029212828    0.1400
68     H68     0.9853    5.1865    9.6645 H        1 ZINC000029212828    0.1400
69     H69     1.0740    7.5051    8.7898 H        1 ZINC000029212828    0.1100
70     H70    -0.6981    7.6190    8.9122 H        1 ZINC000029212828    0.1100
71     H71    -0.5542    7.2301   11.3569 H        1 ZINC000029212828    0.1400
72     H72     1.2179    7.1162   11.2345 H        1 ZINC000029212828    0.1400
73     H73     1.6686    9.1857    9.2186 H        1 ZINC000029212828    0.1300
74     H74     1.7449   10.5664   10.3393 H        1 ZINC000029212828    0.1400
75     H75     2.5212    9.0244   10.7727 H        1 ZINC000029212828    0.1300
76     H76    -0.4551    9.0232   12.8124 H        1 ZINC000029212828    0.1400
77     H77     1.3247    9.0482   12.8027 H        1 ZINC000029212828    0.1400
78     H78     1.2874   11.3667   11.9243 H        1 ZINC000029212828    0.0900
79     H79    -0.4924   11.3418   11.9340 H        1 ZINC000029212828    0.0900
80     H80     0.4211   10.6787   14.5229 H        1 ZINC000029212828    0.4100
81     H81     0.4352   11.0607   16.3182 H        1 ZINC000029212828    0.1300
82     H82     0.4399   11.6928   18.6744 H        1 ZINC000029212828    0.1500
83     H83     0.4027   13.9959   19.3873 H        1 ZINC000029212828    0.1500
84     H84     0.3075   18.6863   18.2716 H        1 ZINC000029212828    0.1500
85     H85     0.2641   20.4059   16.5594 H        1 ZINC000029212828    0.1400
86     H86     0.2560   19.8388   14.1786 H        1 ZINC000029212828    0.1400
87     H87     1.3177   17.3878   12.6438 H        1 ZINC000029212828    0.0700
88     H88    -0.2060   16.4886   12.8389 H        1 ZINC000029212828    0.0800
89     H89    -0.2409   18.2301   12.4723 H        1 ZINC000029212828    0.0700
@<TRIPOS>BOND
1     1     2     1
2     1     50    1
3     1     51    1
4     1     52    1
5     2     49    ar
6     2     3     ar
7     3     4     ar
8     3     53    1
9     4     5     ar
10    4     54    1
11    5     6     ar
12    5     55    1
13    6     49    ar
14    6     7     ar
15    7     8     ar
16    8     47    ar
17    8     9     ar
18    9     10    ar
19    9     56    1
20    10    11    ar
21    10    57    1
22    11    12    ar
23    11    58    1
24    12    13    1
25    12    47    ar
26    13    14    2
27    13    15    am
28    15    16    1
29    15    59    1
30    16    17    1
31    16    60    1
32    16    61    1
33    17    18    1
34    17    62    1
35    17    63    1
36    18    19    1
37    18    20    1
38    18    21    1
39    20    64    1
40    20    65    1
41    20    66    1
42    21    22    1
43    21    67    1
44    21    68    1
45    22    23    1
46    22    69    1
47    22    70    1
48    23    24    1
49    23    71    1
50    23    72    1
51    24    25    1
52    24    26    1
53    24    27    1
54    26    73    1
55    26    74    1
56    26    75    1
57    27    28    1
58    27    76    1
59    27    77    1
60    28    29    1
61    28    78    1
62    28    79    1
63    29    30    am
64    29    80    1
65    30    31    2
66    30    32    1
67    32    46    ar
68    32    33    ar
69    33    34    ar
70    33    81    1
71    34    35    ar
72    34    82    1
73    35    36    ar
74    35    83    1
75    36    46    ar
76    36    37    ar
77    37    38    ar
78    38    44    ar
79    38    39    ar
80    39    40    ar
81    39    84    1
82    40    41    ar
83    40    85    1
84    41    42    ar
85    41    86    1
86    42    43    1
87    42    44    ar
88    43    87    1
89    43    88    1
90    43    89    1
91    44    45    ar
92    45    46    ar
93    47    48    ar
94    48    49    ar
@<TRIPOS>SUBSTRUCTURE
1   ZINC000029212828 1     RESIDUE    1   A     ZIN   1
