@<TRIPOS>MOLECULE
ZINC000068247071
88    92    1     0     0
SMALL
USER_CHARGES
@<TRIPOS>ATOM
1      C1     -0.0187    1.5258    0.0104 C.3      1 ZINC000068247071   -0.1500
2      C2      0.0021   -0.0041    0.0020 C.3      1 ZINC000068247071    0.0700
3      O3      0.6709   -0.4649   -1.1737 O.3      1 ZINC000068247071   -0.3100
4      C4      0.7766   -1.8076   -1.3358 C.ar     1 ZINC000068247071    0.3200
5      C5      1.4221   -2.3139   -2.4576 C.ar     1 ZINC000068247071   -0.1900
6      C6      1.5264   -3.6827   -2.6160 C.ar     1 ZINC000068247071   -0.0300
7      C7      0.9734   -4.5098   -1.6328 C.ar     1 ZINC000068247071   -0.1300
8      C8      1.0592   -5.9859   -1.7559 C.ar     1 ZINC000068247071   -0.0300
9      C9      1.6984   -6.5602   -2.8528 C.ar     1 ZINC000068247071   -0.1100
10     C10     1.7751   -7.9339   -2.9622 C.ar     1 ZINC000068247071   -0.0900
11     C11     1.2191   -8.7402   -1.9855 C.ar     1 ZINC000068247071   -0.1100
12     C12     1.3061  -10.2395   -2.1105 C.3      1 ZINC000068247071    0.1300
13     N13     2.5303  -10.7135   -1.4603 N.pl3    1 ZINC000068247071   -0.4700
14     C14     3.7547  -10.8507   -2.0795 C.ar     1 ZINC000068247071    0.0700
15     C15     4.1975  -10.6165   -3.3772 C.ar     1 ZINC000068247071   -0.0900
16     C16     5.5131  -10.8527   -3.7090 C.ar     1 ZINC000068247071   -0.1900
17     C17     6.4106  -11.3262   -2.7557 C.ar     1 ZINC000068247071    0.1000
18     O18     7.7063  -11.5546   -3.1000 O.3      1 ZINC000068247071   -0.3200
19     C19     8.0745  -11.2870   -4.4546 C.3      1 ZINC000068247071    0.1200
20     C20     9.5367  -11.5963   -4.6482 C.ar     1 ZINC000068247071    0.1200
21     C21    10.2817  -12.0677   -3.5841 C.ar     1 ZINC000068247071   -0.1400
22     C22    11.6262  -12.3497   -3.7729 C.ar     1 ZINC000068247071   -0.0800
23     C23    12.1729  -12.1460   -5.0304 C.ar     1 ZINC000068247071   -0.1400
24     C24    13.6290  -12.4383   -5.2859 C.3      1 ZINC000068247071   -0.1100
25     C25    11.3653  -11.6720   -6.0472 C.ar     1 ZINC000068247071    0.1000
26     N26    10.0891  -11.4192   -5.8325 N.ar     1 ZINC000068247071   -0.4800
27     C27     5.9906  -11.5644   -1.4622 C.ar     1 ZINC000068247071   -0.1000
28     C28     4.6592  -11.3286   -1.1145 C.ar     1 ZINC000068247071   -0.0300
29     C29     3.8937  -11.4688    0.1300 C.2      1 ZINC000068247071   -0.2100
30     S30     4.5101  -12.0303    1.6822 S.3      1 ZINC000068247071   -0.0800
31     C31     5.0627  -10.4979    2.4804 C.3      1 ZINC000068247071   -0.0600
32     C32     3.8759   -9.5438    2.6293 C.3      1 ZINC000068247071   -0.1400
33     C33     5.6345  -10.8202    3.8624 C.3      1 ZINC000068247071   -0.1300
34     C34     6.1437   -9.8372    1.6226 C.3      1 ZINC000068247071   -0.1300
35     C35     2.6320  -11.0828   -0.1387 C.2      1 ZINC000068247071    0.1900
36     C36     1.5002  -11.0649    0.8562 C.3      1 ZINC000068247071   -0.0500
37     C37     0.7789  -12.4139    0.8325 C.3      1 ZINC000068247071   -0.1200
38     C38     0.2216  -12.6697   -0.5693 C.3      1 ZINC000068247071   -0.1200
39     C39     1.7638  -13.5254    1.2005 C.3      1 ZINC000068247071   -0.1200
40     C40    -0.3529  -12.3960    1.8274 C.2      1 ZINC000068247071    0.5100
41     O41    -1.3511  -13.0669    1.6274 O.co2    1 ZINC000068247071   -0.6900
42     O42    -0.2704  -11.7105    2.8323 O.co2    1 ZINC000068247071   -0.6900
43     C43     0.5838   -8.1755   -0.8943 C.ar     1 ZINC000068247071   -0.0900
44     C44     0.5058   -6.8030   -0.7720 C.ar     1 ZINC000068247071   -0.1100
45     C45     0.3419   -3.9281   -0.5369 C.ar     1 ZINC000068247071    0.1500
46     N46     0.2684   -2.6174   -0.4211 N.ar     1 ZINC000068247071   -0.5400
47     H47     1.0039    1.9031    0.0027 H        1 ZINC000068247071    0.0600
48     H48    -0.5459    1.8868   -0.8726 H        1 ZINC000068247071    0.0600
49     H49    -0.5289    1.8773    0.9072 H        1 ZINC000068247071    0.0800
50     H50     0.5293   -0.3651    0.8851 H        1 ZINC000068247071    0.0700
51     H51    -1.0205   -0.3814    0.0098 H        1 ZINC000068247071    0.0700
52     H52     1.8371   -1.6452   -3.1972 H        1 ZINC000068247071    0.1400
53     H53     2.0224   -4.1035   -3.4781 H        1 ZINC000068247071    0.1400
54     H54     2.1326   -5.9316   -3.6162 H        1 ZINC000068247071    0.1200
55     H55     2.2700   -8.3801   -3.8122 H        1 ZINC000068247071    0.1200
56     H56     0.4400  -10.6950   -1.6305 H        1 ZINC000068247071    0.1200
57     H57     1.3243  -10.5158   -3.1648 H        1 ZINC000068247071    0.0900
58     H58     3.5096  -10.2499   -4.1247 H        1 ZINC000068247071    0.1200
59     H59     5.8516  -10.6692   -4.7180 H        1 ZINC000068247071    0.1300
60     H60     7.4798  -11.9100   -5.1226 H        1 ZINC000068247071    0.0800
61     H61     7.8925  -10.2362   -4.6797 H        1 ZINC000068247071    0.0800
62     H62     9.8227  -12.2143   -2.6175 H        1 ZINC000068247071    0.1500
63     H63    12.2332  -12.7190   -2.9594 H        1 ZINC000068247071    0.1400
64     H64    13.7408  -13.4736   -5.6079 H        1 ZINC000068247071    0.0700
65     H65    14.0018  -11.7733   -6.0650 H        1 ZINC000068247071    0.0700
66     H66    14.1977  -12.2792   -4.3698 H        1 ZINC000068247071    0.0700
67     H67    11.7836  -11.5103   -7.0296 H        1 ZINC000068247071    0.1600
68     H68     6.6879  -11.9317   -0.7237 H        1 ZINC000068247071    0.1300
69     H69     3.1058  -10.0145    3.2404 H        1 ZINC000068247071    0.0700
70     H70     4.2079   -8.6230    3.1089 H        1 ZINC000068247071    0.0500
71     H71     3.4685   -9.3142    1.6447 H        1 ZINC000068247071    0.0600
72     H72     6.4800  -11.4999    3.7564 H        1 ZINC000068247071    0.0600
73     H73     5.9665   -9.8994    4.3420 H        1 ZINC000068247071    0.0600
74     H74     4.8643  -11.2909    4.4735 H        1 ZINC000068247071    0.0700
75     H75     5.7363   -9.6076    0.6380 H        1 ZINC000068247071    0.0600
76     H76     6.4757   -8.9164    2.1022 H        1 ZINC000068247071    0.0500
77     H77     6.9892  -10.5169    1.5165 H        1 ZINC000068247071    0.0600
78     H78     1.8972  -10.8826    1.8549 H        1 ZINC000068247071    0.1100
79     H79     0.7985  -10.2730    0.5941 H        1 ZINC000068247071    0.0600
80     H80     1.0402  -12.6827   -1.2889 H        1 ZINC000068247071    0.0300
81     H81    -0.2923  -13.6308   -0.5862 H        1 ZINC000068247071    0.0600
82     H82    -0.4800  -11.8779   -0.8314 H        1 ZINC000068247071    0.0400
83     H83     2.1608  -13.3432    2.1991 H        1 ZINC000068247071    0.0600
84     H84     1.2499  -14.4865    1.1836 H        1 ZINC000068247071    0.0400
85     H85     2.5824  -13.5384    0.4809 H        1 ZINC000068247071    0.0400
86     H86     0.1513   -8.8097   -0.1346 H        1 ZINC000068247071    0.1300
87     H87     0.0095   -6.3631    0.0804 H        1 ZINC000068247071    0.1300
88     H88    -0.0885   -4.5573    0.2281 H        1 ZINC000068247071    0.1600
@<TRIPOS>BOND
1     1     2     1
2     1     47    1
3     1     48    1
4     1     49    1
5     2     3     1
6     2     50    1
7     2     51    1
8     3     4     1
9     4     46    ar
10    4     5     ar
11    5     6     ar
12    5     52    1
13    6     7     ar
14    6     53    1
15    7     8     1
16    7     45    ar
17    8     44    ar
18    8     9     ar
19    9     10    ar
20    9     54    1
21    10    11    ar
22    10    55    1
23    11    12    1
24    11    43    ar
25    12    13    1
26    12    56    1
27    12    57    1
28    13    35    1
29    13    14    1
30    14    28    ar
31    14    15    ar
32    15    16    ar
33    15    58    1
34    16    17    ar
35    16    59    1
36    17    18    1
37    17    27    ar
38    18    19    1
39    19    20    1
40    19    60    1
41    19    61    1
42    20    26    ar
43    20    21    ar
44    21    22    ar
45    21    62    1
46    22    23    ar
47    22    63    1
48    23    24    1
49    23    25    ar
50    24    64    1
51    24    65    1
52    24    66    1
53    25    26    ar
54    25    67    1
55    27    28    ar
56    27    68    1
57    28    29    1
58    29    30    1
59    29    35    2
60    30    31    1
61    31    32    1
62    31    33    1
63    31    34    1
64    32    69    1
65    32    70    1
66    32    71    1
67    33    72    1
68    33    73    1
69    33    74    1
70    34    75    1
71    34    76    1
72    34    77    1
73    35    36    1
74    36    37    1
75    36    78    1
76    36    79    1
77    37    38    1
78    37    39    1
79    37    40    1
80    38    80    1
81    38    81    1
82    38    82    1
83    39    83    1
84    39    84    1
85    39    85    1
86    40    41    ar
87    40    42    ar
88    43    44    ar
89    43    86    1
90    44    87    1
91    45    46    ar
92    45    88    1
@<TRIPOS>SUBSTRUCTURE
1   ZINC000068247071 1     RESIDUE    1   A     ZIN   1
