@<TRIPOS>MOLECULE
ZINC000002508229
28    27    1     0     0
SMALL
USER_CHARGES
@<TRIPOS>ATOM
1      O1      0.0021   -0.0041    0.0020 O.2      1 ZINC000002508229   -0.4500
2      C2     -0.0143    1.2034    0.0087 C.2      1 ZINC000002508229    0.3200
3      C3      1.2804    1.9746    0.0004 C.3      1 ZINC000002508229    0.0100
4      H4      1.3381    2.5972    0.8933 H        1 ZINC000002508229    0.1400
5      O5      2.3790    1.0609   -0.0150 O.3      1 ZINC000002508229   -0.5300
6      C6      1.3376    2.8619   -1.2447 C.3      1 ZINC000002508229    0.0600
7      H7      1.2799    2.2393   -2.1375 H        1 ZINC000002508229    0.1200
8      O8      0.2390    3.7756   -1.2293 O.3      1 ZINC000002508229   -0.5400
9      C9      2.6520    3.6449   -1.2530 C.3      1 ZINC000002508229    0.0500
10     H10     3.4872    2.9518   -1.3543 H        1 ZINC000002508229    0.1200
11     O11     2.7816    4.3713   -0.0292 O.3      1 ZINC000002508229   -0.5400
12     C12     2.6556    4.6230   -2.4295 C.3      1 ZINC000002508229    0.0800
13     H13     1.8204    5.3162   -2.3282 H        1 ZINC000002508229    0.1100
14     O14     2.5260    3.8967   -3.6533 O.3      1 ZINC000002508229   -0.5400
15     C15     3.9700    5.4060   -2.4378 C.3      1 ZINC000002508229    0.1100
16     O16     3.9263    6.3993   -3.4642 O.3      1 ZINC000002508229   -0.7500
17     P17     5.1445    7.4099   -3.7589 P.3      1 ZINC000002508229    2.2100
18     O18     6.4355    6.6001   -4.0126 O.2      1 ZINC000002508229   -1.1100
19     O19     5.3497    8.3381   -2.5411 O.3      1 ZINC000002508229   -1.1100
20     O20     4.8034    8.2970   -5.0584 O.3      1 ZINC000002508229   -0.9000
21     H21    -0.9568    1.7306    0.0160 H        1 ZINC000002508229    0.1100
22     H22     2.3916    0.4739   -0.7833 H        1 ZINC000002508229    0.3800
23     H23     0.2264    4.3626   -0.4609 H        1 ZINC000002508229    0.3800
24     H24     2.0710    5.0082    0.1272 H        1 ZINC000002508229    0.3700
25     H25     3.2366    3.2597   -3.8097 H        1 ZINC000002508229    0.3700
26     H26     4.1116    5.8887   -1.4708 H        1 ZINC000002508229    0.0700
27     H27     4.7983    4.7234   -2.6279 H        1 ZINC000002508229    0.0600
28     H28     5.4952    8.9298   -5.2953 H        1 ZINC000002508229    0.4100
@<TRIPOS>BOND
1     1     2     2
2     2     3     1
3     2     21    1
4     3     4     1
5     3     5     1
6     3     6     1
7     5     22    1
8     6     7     1
9     6     8     1
10    6     9     1
11    8     23    1
12    9     10    1
13    9     11    1
14    9     12    1
15    11    24    1
16    12    13    1
17    12    14    1
18    12    15    1
19    14    25    1
20    15    16    1
21    15    26    1
22    15    27    1
23    16    17    1
24    17    18    2
25    17    19    1
26    17    20    1
27    20    28    1
@<TRIPOS>SUBSTRUCTURE
1   ZINC000002508229 1     RESIDUE    1   A     ZIN   1
