@<TRIPOS>MOLECULE
ZINC000206191652
46    49    1     0     0
SMALL
USER_CHARGES
@<TRIPOS>ATOM
1      O1      0.0021   -0.0041    0.0020 O.2      1 ZINC000206191652   -0.5000
2      C2     -0.0144    1.2117    0.0087 C.2      1 ZINC000206191652    0.5700
3      C3     -1.2946    1.9454    0.0311 C.ar     1 ZINC000206191652   -0.1500
4      C4     -2.3018    1.6040    0.9281 C.ar     1 ZINC000206191652   -0.0400
5      C5     -3.4983    2.3133    0.9198 C.ar     1 ZINC000206191652   -0.0500
6      C6     -4.5778    1.9566    1.8731 C.ar     1 ZINC000206191652   -0.0600
7      C7     -4.3920    0.9153    2.7806 C.ar     1 ZINC000206191652   -0.0700
8      C8     -5.3973    0.5860    3.6655 C.ar     1 ZINC000206191652   -0.1200
9      C9     -6.5935    1.2902    3.6526 C.ar     1 ZINC000206191652    0.1100
10     O10    -7.5822    0.9635    4.5257 O.3      1 ZINC000206191652   -0.3100
11     C11    -8.7869    1.7292    4.4578 C.3      1 ZINC000206191652    0.6000
12     F12    -9.3514    1.5984    3.1845 F        1 ZINC000206191652   -0.1600
13     F13    -9.6905    1.2630    5.4187 F        1 ZINC000206191652   -0.1300
14     F14    -8.4980    3.0758    4.7038 F        1 ZINC000206191652   -0.1600
15     C15    -6.7815    2.3279    2.7499 C.ar     1 ZINC000206191652   -0.1900
16     C16    -5.7775    2.6659    1.8667 C.ar     1 ZINC000206191652   -0.0700
17     C17    -3.6844    3.3607    0.0160 C.ar     1 ZINC000206191652   -0.0700
18     C18    -2.6857    3.7012   -0.8726 C.ar     1 ZINC000206191652   -0.1300
19     C19    -1.4888    3.0037   -0.8728 C.ar     1 ZINC000206191652    0.1300
20     O20    -0.4911    3.3328   -1.7314 O.3      1 ZINC000206191652   -0.3200
21     C21     0.6361    4.0099   -1.1898 C.3      1 ZINC000206191652    0.0500
22     C22     1.0991    3.3753    0.1147 C.3      1 ZINC000206191652    0.0700
23     N23     1.1421    1.9170    0.0014 N.am     1 ZINC000206191652   -0.6000
24     C24     2.4268    1.2247   -0.1270 C.3      1 ZINC000206191652    0.1900
25     C25     2.9508    0.8800    1.2433 C.ar     1 ZINC000206191652    0.2900
26     N26     3.7187    1.7465    1.8731 N.ar     1 ZINC000206191652   -0.5100
27     C27     4.1972    1.4784    3.0774 C.ar     1 ZINC000206191652    0.1500
28     C28     3.8806    0.2684    3.6745 C.ar     1 ZINC000206191652   -0.2200
29     C29     3.0705   -0.6170    2.9811 C.ar     1 ZINC000206191652    0.1500
30     N30     2.6247   -0.2777    1.7822 N.ar     1 ZINC000206191652   -0.4900
31     H31    -2.1554    0.7935    1.6267 H        1 ZINC000206191652    0.1400
32     H32    -3.4618    0.3666    2.7907 H        1 ZINC000206191652    0.1400
33     H33    -5.2539   -0.2209    4.3690 H        1 ZINC000206191652    0.1400
34     H34    -7.7134    2.8739    2.7419 H        1 ZINC000206191652    0.1400
35     H35    -5.9242    3.4735    1.1649 H        1 ZINC000206191652    0.1400
36     H36    -4.6158    3.9073    0.0122 H        1 ZINC000206191652    0.1400
37     H37    -2.8371    4.5127   -1.5690 H        1 ZINC000206191652    0.1400
38     H38     1.4523    3.9754   -1.9114 H        1 ZINC000206191652    0.1100
39     H39     0.3706    5.0506   -1.0044 H        1 ZINC000206191652    0.0700
40     H40     2.0949    3.7446    0.3597 H        1 ZINC000206191652    0.1100
41     H41     0.4090    3.6504    0.9123 H        1 ZINC000206191652    0.0800
42     H42     2.2907    0.3104   -0.7046 H        1 ZINC000206191652    0.1100
43     H43     3.1397    1.8734   -0.6360 H        1 ZINC000206191652    0.1100
44     H44     4.8261    2.1927    3.5879 H        1 ZINC000206191652    0.1700
45     H45     4.2565    0.0212    4.6564 H        1 ZINC000206191652    0.1500
46     H46     2.8035   -1.5692    3.4150 H        1 ZINC000206191652    0.1700
@<TRIPOS>BOND
1     1     2     2
2     2     23    am
3     2     3     1
4     3     19    ar
5     3     4     ar
6     4     5     ar
7     4     31    1
8     5     6     1
9     5     17    ar
10    6     16    ar
11    6     7     ar
12    7     8     ar
13    7     32    1
14    8     9     ar
15    8     33    1
16    9     10    1
17    9     15    ar
18    10    11    1
19    11    12    1
20    11    13    1
21    11    14    1
22    15    16    ar
23    15    34    1
24    16    35    1
25    17    18    ar
26    17    36    1
27    18    19    ar
28    18    37    1
29    19    20    1
30    20    21    1
31    21    22    1
32    21    38    1
33    21    39    1
34    22    23    1
35    22    40    1
36    22    41    1
37    23    24    1
38    24    25    1
39    24    42    1
40    24    43    1
41    25    30    ar
42    25    26    ar
43    26    27    ar
44    27    28    ar
45    27    44    1
46    28    29    ar
47    28    45    1
48    29    30    ar
49    29    46    1
@<TRIPOS>SUBSTRUCTURE
1   ZINC000206191652 1     RESIDUE    1   A     ZIN   1
