@<TRIPOS>MOLECULE
ZINC000043204100
52    56    1     0     0
SMALL
USER_CHARGES
@<TRIPOS>ATOM
1      C1     -0.0178    1.4608    0.0101 C.3      1 ZINC000043204100    0.0500
2      N2      0.0021   -0.0041    0.0020 N.pl3    1 ZINC000043204100   -0.4000
3      C3      0.0085   -0.8072   -1.1045 C.2      1 ZINC000043204100    0.0400
4      C4      0.0286   -2.0893   -0.6558 C.2      1 ZINC000043204100    0.0900
5      C5      0.0425   -3.3112   -1.4976 C.ar     1 ZINC000043204100   -0.0700
6      C6      0.0576   -4.5704   -0.9013 C.ar     1 ZINC000043204100   -0.0400
7      C7      0.0706   -5.7041   -1.6881 C.ar     1 ZINC000043204100   -0.1400
8      C8      0.0691   -5.5915   -3.0687 C.ar     1 ZINC000043204100    0.1900
9      F9      0.0819   -6.7040   -3.8351 F        1 ZINC000043204100   -0.1000
10     C10     0.0541   -4.3414   -3.6659 C.ar     1 ZINC000043204100   -0.2100
11     C11     0.0526   -4.2253   -5.1684 C.3      1 ZINC000043204100    0.5100
12     F12     0.0364   -2.8744   -5.5318 F        1 ZINC000043204100   -0.1700
13     F13     1.2022   -4.8332   -5.6843 F        1 ZINC000043204100   -0.1600
14     F14    -1.0822   -4.8605   -5.6841 F        1 ZINC000043204100   -0.1600
15     C15     0.0348   -3.2027   -2.8871 C.ar     1 ZINC000043204100   -0.0100
16     N16     0.0340   -2.0520    0.6922 N.pl3    1 ZINC000043204100   -0.4700
17     H17     0.0478   -2.8267    1.2758 H        1 ZINC000043204100    0.4600
18     C18     0.0233   -0.8095    1.0865 C.cat    1 ZINC000043204100    0.3300
19     C19     0.0249   -0.3464    2.5206 C.3      1 ZINC000043204100   -0.0400
20     C20    -1.4101   -0.3301    3.0547 C.3      1 ZINC000043204100   -0.1200
21     C21    -1.3961    0.0822    4.5284 C.3      1 ZINC000043204100    0.0600
22     N22    -0.5799   -0.8672    5.2958 N.3      1 ZINC000043204100   -0.4700
23     C23    -0.6512   -0.6012    6.6448 C.ar     1 ZINC000043204100    0.4600
24     N24    -1.3894    0.3984    7.1117 N.ar     1 ZINC000043204100   -0.5900
25     C25    -1.4699    0.6682    8.4049 C.ar     1 ZINC000043204100    0.3700
26     N26    -0.8493    0.0006    9.3418 N.ar     1 ZINC000043204100   -0.5100
27     C27    -0.0575   -1.0459    9.0381 C.ar     1 ZINC000043204100    0.3000
28     N28     0.6809   -1.8964    9.7166 N.2      1 ZINC000043204100   -0.2700
29     N29     1.2901   -2.7867    8.8241 N.pl3    1 ZINC000043204100   -0.4100
30     C30     0.9299   -2.4923    7.5680 C.2      1 ZINC000043204100    0.1400
31     C31     0.0779   -1.4121    7.6169 C.ar     1 ZINC000043204100   -0.3200
32     C32     0.8134   -0.8656    4.8320 C.3      1 ZINC000043204100    0.0600
33     C33     0.8654   -1.3061    3.3674 C.3      1 ZINC000043204100   -0.1200
34     H34     1.0048    1.8381    0.0023 H        1 ZINC000043204100    0.1200
35     H35    -0.5450    1.8219   -0.8730 H        1 ZINC000043204100    0.1200
36     H36    -0.5280    1.8123    0.9069 H        1 ZINC000043204100    0.1200
37     H37    -0.0011   -0.4849   -2.1352 H        1 ZINC000043204100    0.2300
38     H38     0.0595   -4.6590    0.1751 H        1 ZINC000043204100    0.1400
39     H39     0.0823   -6.6805   -1.2267 H        1 ZINC000043204100    0.1700
40     H40     0.0232   -2.2287   -3.3534 H        1 ZINC000043204100    0.1600
41     H41     0.4477    0.6566    2.5791 H        1 ZINC000043204100    0.1300
42     H42    -2.0031    0.3836    2.4827 H        1 ZINC000043204100    0.0900
43     H43    -1.8452   -1.3249    2.9592 H        1 ZINC000043204100    0.0900
44     H44    -0.9736    1.0826    4.6216 H        1 ZINC000043204100    0.0700
45     H45    -2.4150    0.0809    4.9155 H        1 ZINC000043204100    0.1100
46     H46    -2.0915    1.4981    8.7071 H        1 ZINC000043204100    0.2000
47     H47     1.8851   -3.5096    9.0778 H        1 ZINC000043204100    0.4500
48     H48     1.2478   -3.0122    6.6763 H        1 ZINC000043204100    0.2000
49     H49     1.2256    0.1393    4.9239 H        1 ZINC000043204100    0.0700
50     H50     1.3993   -1.5552    5.4397 H        1 ZINC000043204100    0.1000
51     H51     0.4661   -2.3163    3.2768 H        1 ZINC000043204100    0.0800
52     H52     1.8980   -1.2898    3.0189 H        1 ZINC000043204100    0.1000
@<TRIPOS>BOND
1     1     2     1
2     1     34    1
3     1     35    1
4     1     36    1
5     2     18    ar
6     2     3     1
7     3     4     2
8     3     37    1
9     4     5     1
10    4     16    1
11    5     15    ar
12    5     6     ar
13    6     7     ar
14    6     38    1
15    7     8     ar
16    7     39    1
17    8     9     1
18    8     10    ar
19    10    11    1
20    10    15    ar
21    11    12    1
22    11    13    1
23    11    14    1
24    15    40    1
25    16    17    1
26    16    18    ar
27    18    19    1
28    19    33    1
29    19    20    1
30    19    41    1
31    20    21    1
32    20    42    1
33    20    43    1
34    21    22    1
35    21    44    1
36    21    45    1
37    22    23    1
38    22    32    1
39    23    31    ar
40    23    24    ar
41    24    25    ar
42    25    26    ar
43    25    46    1
44    26    27    ar
45    27    31    ar
46    27    28    2
47    28    29    1
48    29    30    1
49    29    47    1
50    30    31    2
51    30    48    1
52    32    33    1
53    32    49    1
54    32    50    1
55    33    51    1
56    33    52    1
@<TRIPOS>SUBSTRUCTURE
1   ZINC000043204100 1     RESIDUE    1   A     ZIN   1
