@<TRIPOS>MOLECULE
ZINC000000008596
35    35    1     0     0
SMALL
USER_CHARGES
@<TRIPOS>ATOM
1      C1      0.5578    1.5116   -0.1485 C.3      1 ZINC000000008596   -0.1700
2      C2      0.5861    0.0049   -0.1612 C.2      1 ZINC000000008596    0.5100
3      O3      1.1362   -0.5988    0.7353 O.2      1 ZINC000000008596   -0.5200
4      N4      0.0001   -0.6716   -1.1688 N.am     1 ZINC000000008596   -0.6800
5      C5      0.1084   -2.0604   -1.2319 C.ar     1 ZINC000000008596    0.1700
6      C6      0.1178   -2.8098   -0.0597 C.ar     1 ZINC000000008596   -0.1300
7      C7      0.2246   -4.1811   -0.1185 C.ar     1 ZINC000000008596   -0.0400
8      C8      0.3232   -4.8202   -1.3573 C.ar     1 ZINC000000008596   -0.1500
9      C9      0.4374   -6.2903   -1.4242 C.2      1 ZINC000000008596    0.5600
10     O10     0.4457   -6.9465   -0.4007 O.2      1 ZINC000000008596   -0.5300
11     N11     0.5324   -6.9052   -2.6197 N.am     1 ZINC000000008596   -0.7200
12     C12     0.6457   -8.3643   -2.6860 C.3      1 ZINC000000008596    0.1700
13     C13    -0.5860   -9.0014   -2.0396 C.3      1 ZINC000000008596   -0.1700
14     C14     0.7381   -8.8027   -4.1490 C.3      1 ZINC000000008596   -0.1600
15     C15     1.9033   -8.8126   -1.9388 C.3      1 ZINC000000008596   -0.1700
16     C16     0.3130   -4.0645   -2.5328 C.ar     1 ZINC000000008596   -0.0700
17     C17     0.2011   -2.6939   -2.4672 C.ar     1 ZINC000000008596   -0.1500
18     H18     1.4329    1.8959   -0.6725 H        1 ZINC000000008596    0.1000
19     H19    -0.3465    1.8622   -0.6459 H        1 ZINC000000008596    0.0800
20     H20     0.5665    1.8665    0.8821 H        1 ZINC000000008596    0.1000
21     H21    -0.4971   -0.1925   -1.8501 H        1 ZINC000000008596    0.4100
22     H22     0.0415   -2.3152    0.8973 H        1 ZINC000000008596    0.1500
23     H23     0.2325   -4.7622    0.7918 H        1 ZINC000000008596    0.1400
24     H24     0.5257   -6.3816   -3.4363 H        1 ZINC000000008596    0.4000
25     H25    -1.4819   -8.6819   -2.5719 H        1 ZINC000000008596    0.0500
26     H26    -0.5017  -10.0870   -2.0889 H        1 ZINC000000008596    0.0600
27     H27    -0.6519   -8.6890   -0.9974 H        1 ZINC000000008596    0.0800
28     H28     1.6156   -8.3488   -4.6095 H        1 ZINC000000008596    0.0600
29     H29     0.8225   -9.8883   -4.1983 H        1 ZINC000000008596    0.0800
30     H30    -0.1578   -8.4832   -4.6813 H        1 ZINC000000008596    0.0600
31     H31     1.8374   -8.5003   -0.8966 H        1 ZINC000000008596    0.0800
32     H32     1.9876   -9.8982   -1.9882 H        1 ZINC000000008596    0.0600
33     H33     2.7808   -8.3587   -2.3994 H        1 ZINC000000008596    0.0500
34     H34     0.3894   -4.5553   -3.4918 H        1 ZINC000000008596    0.1300
35     H35     0.1931   -2.1093   -3.3752 H        1 ZINC000000008596    0.1300
@<TRIPOS>BOND
1     1     2     1
2     1     18    1
3     1     19    1
4     1     20    1
5     2     3     2
6     2     4     am
7     4     5     1
8     4     21    1
9     5     17    ar
10    5     6     ar
11    6     7     ar
12    6     22    1
13    7     8     ar
14    7     23    1
15    8     9     1
16    8     16    ar
17    9     10    2
18    9     11    am
19    11    12    1
20    11    24    1
21    12    13    1
22    12    14    1
23    12    15    1
24    13    25    1
25    13    26    1
26    13    27    1
27    14    28    1
28    14    29    1
29    14    30    1
30    15    31    1
31    15    32    1
32    15    33    1
33    16    17    ar
34    16    34    1
35    17    35    1
@<TRIPOS>SUBSTRUCTURE
1   ZINC000000008596 1     RESIDUE    1   A     ZIN   1
