@<TRIPOS>MOLECULE
ZINC000003787606
41    43    1     0     0
SMALL
USER_CHARGES
@<TRIPOS>ATOM
1      C1     -0.0178    1.4648    0.0101 C.3      1 ZINC000003787606    0.0200
2      N2      0.0021   -0.0041    0.0020 N.3      1 ZINC000003787606   -0.5400
3      C3      0.7062   -0.5275    1.1802 C.3      1 ZINC000003787606    0.0200
4      C4     -1.3597   -0.5486   -0.0825 C.3      1 ZINC000003787606    0.0400
5      C5     -1.9710   -0.1854   -1.4372 C.3      1 ZINC000003787606    0.1200
6      N6     -3.3290   -0.7284   -1.5215 N.am     1 ZINC000003787606   -0.7300
7      C7     -4.0658   -0.5314   -2.6327 C.2      1 ZINC000003787606    0.5600
8      O8     -3.6033    0.0973   -3.5654 O.2      1 ZINC000003787606   -0.4900
9      C9     -5.4314   -1.0774   -2.7174 C.ar     1 ZINC000003787606   -0.1200
10     C10    -5.9751   -1.7912   -1.6604 C.ar     1 ZINC000003787606   -0.0500
11     C11    -7.2606   -2.3124   -1.7245 C.ar     1 ZINC000003787606   -0.1400
12     C12    -8.0565   -2.1567   -2.8149 C.ar     1 ZINC000003787606   -0.0600
13     C13    -7.5955   -1.4463   -3.9408 C.ar     1 ZINC000003787606   -0.1200
14     C14    -8.3986   -1.2749   -5.0713 C.ar     1 ZINC000003787606   -0.0300
15     C15    -7.8664   -0.5568   -6.1462 C.ar     1 ZINC000003787606   -0.1100
16     C16    -8.6116   -0.3392   -7.3222 C.ar     1 ZINC000003787606   -0.0900
17     C17    -8.0579    0.3646   -8.3443 C.ar     1 ZINC000003787606   -0.1200
18     C18    -6.7651    0.8790   -8.2594 C.ar     1 ZINC000003787606   -0.0900
19     C19    -5.9956    0.7038   -7.1534 C.ar     1 ZINC000003787606   -0.0900
20     C20    -6.5071   -0.0163   -6.0544 C.ar     1 ZINC000003787606    0.1600
21     N21    -5.7749   -0.2022   -4.9589 N.ar     1 ZINC000003787606   -0.4300
22     C22    -6.2467   -0.8720   -3.9194 C.ar     1 ZINC000003787606    0.1900
23     H23     1.0047    1.8421    0.0024 H        1 ZINC000003787606    0.0700
24     H24    -0.5450    1.8259   -0.8730 H        1 ZINC000003787606    0.0700
25     H25    -0.5280    1.8163    0.9069 H        1 ZINC000003787606    0.0300
26     H26     0.1617   -0.2488    2.0824 H        1 ZINC000003787606    0.0300
27     H27     0.7676   -1.6137    1.1140 H        1 ZINC000003787606    0.0700
28     H28     1.7116   -0.1084    1.2186 H        1 ZINC000003787606    0.0700
29     H29    -1.3244   -1.6331    0.0212 H        1 ZINC000003787606    0.0800
30     H30    -1.9698   -0.1268    0.7163 H        1 ZINC000003787606    0.0400
31     H31    -2.0063    0.8991   -1.5409 H        1 ZINC000003787606    0.0700
32     H32    -1.3609   -0.6071   -2.2359 H        1 ZINC000003787606    0.0800
33     H33    -3.6979   -1.2298   -0.7775 H        1 ZINC000003787606    0.4000
34     H34    -5.3861   -1.9455   -0.7684 H        1 ZINC000003787606    0.1300
35     H35    -7.6419   -2.8620   -0.8766 H        1 ZINC000003787606    0.1300
36     H36    -9.0496   -2.5811   -2.8186 H        1 ZINC000003787606    0.1400
37     H37    -9.3973   -1.6840   -5.1134 H        1 ZINC000003787606    0.1500
38     H38    -9.6150   -0.7290   -7.4106 H        1 ZINC000003787606    0.1300
39     H39    -8.6328    0.5289   -9.2437 H        1 ZINC000003787606    0.1300
40     H40    -6.3639    1.4318   -9.0960 H        1 ZINC000003787606    0.1300
41     H41    -4.9971    1.1137   -7.1164 H        1 ZINC000003787606    0.1400
@<TRIPOS>BOND
1     1     2     1
2     1     23    1
3     1     24    1
4     1     25    1
5     2     3     1
6     2     4     1
7     3     26    1
8     3     27    1
9     3     28    1
10    4     5     1
11    4     29    1
12    4     30    1
13    5     6     1
14    5     31    1
15    5     32    1
16    6     7     am
17    6     33    1
18    7     8     2
19    7     9     1
20    9     22    ar
21    9     10    ar
22    10    11    ar
23    10    34    1
24    11    12    ar
25    11    35    1
26    12    13    ar
27    12    36    1
28    13    22    ar
29    13    14    ar
30    14    15    ar
31    14    37    1
32    15    20    ar
33    15    16    ar
34    16    17    ar
35    16    38    1
36    17    18    ar
37    17    39    1
38    18    19    ar
39    18    40    1
40    19    20    ar
41    19    41    1
42    20    21    ar
43    21    22    ar
@<TRIPOS>SUBSTRUCTURE
1   ZINC000003787606 1     RESIDUE    1   A     ZIN   1
