@<TRIPOS>MOLECULE
ZINC000001676954
  26   26    0    0    0
SMALL
USER_CHARGES
NO_NAME
@<TRIPOS>ATOM
    1 N1       -0.0162     1.3436     0.0094 N.am   1 <0>      -0.8300
    2 C2        0.0021    -0.0041     0.0020 C.2    1 <0>       0.6500
    3 O3        1.0625    -0.5972    -0.0113 O.2    1 <0>      -0.5700
    4 O4       -1.1546    -0.6930     0.0094 O.3    1 <0>      -0.3700
    5 C5       -1.0590    -2.1419     0.0007 C.3    1 <0>       0.0900
    6 C6       -2.4647    -2.7458     0.0108 C.3    1 <0>      -0.1100
    7 C7       -2.3639    -4.2725     0.0017 C.3    1 <0>      -0.0800
    8 C8       -3.7485    -4.8674     0.0117 C.ar   1 <0>      -0.0800
    9 C9       -4.3743    -5.1414     1.2134 C.ar   1 <0>      -0.1200
   10 C10      -5.6444    -5.6871     1.2226 C.ar   1 <0>      -0.1200
   11 C11      -6.2887    -5.9584     0.0301 C.ar   1 <0>      -0.1200
   12 C12      -5.6633    -5.6835    -1.1716 C.ar   1 <0>      -0.1200
   13 C13      -4.3949    -5.1338    -1.1808 C.ar   1 <0>      -0.1200
   14 H14       0.8172     1.8399     0.0041 H      1 <0>       0.4300
   15 H15      -0.8627     1.8171     0.0160 H      1 <0>       0.4100
   16 H16      -0.5308    -2.4658    -0.8961 H      1 <0>       0.0700
   17 H17      -0.5139    -2.4753     0.8837 H      1 <0>       0.0700
   18 H18      -2.9928    -2.4220     0.9077 H      1 <0>       0.0800
   19 H19      -3.0098    -2.4124    -0.8722 H      1 <0>       0.0800
   20 H20      -1.8358    -4.5964    -0.8951 H      1 <0>       0.0800
   21 H21      -1.8188    -4.6059     0.8847 H      1 <0>       0.0800
   22 H22      -3.8709    -4.9295     2.1451 H      1 <0>       0.1200
   23 H23      -6.1330    -5.9019     2.1615 H      1 <0>       0.1200
   24 H24      -7.2807    -6.3854     0.0373 H      1 <0>       0.1200
   25 H25      -6.1666    -5.8957    -2.1033 H      1 <0>       0.1200
   26 H26      -3.9063    -4.9190    -2.1196 H      1 <0>       0.1200
@<TRIPOS>BOND
   1    1    2 am
   2    1   14 1
   3    1   15 1
   4    2    3 2
   5    2    4 1
   6    4    5 1
   7    5    6 1
   8    5   16 1
   9    5   17 1
  10    6    7 1
  11    6   18 1
  12    6   19 1
  13    7    8 1
  14    7   20 1
  15    7   21 1
  16    8   13 ar
  17    8    9 ar
  18    9   10 ar
  19    9   22 1
  20   10   11 ar
  21   10   23 1
  22   11   12 ar
  23   11   24 1
  24   12   13 ar
  25   12   25 1
  26   13   26 1
