@<TRIPOS>MOLECULE
ZINC000072190119
  50   53    0    0    0
SMALL
USER_CHARGES
NO_NAME
@<TRIPOS>ATOM
    1 O1        0.0131    -0.0136     0.0804 O.2    1 <0>      -0.4500
    2 C2       -0.0057     1.1997     0.0816 C.2    1 <0>       0.4200
    3 C3       -1.3019     1.9968     0.1148 C.3    1 <0>      -0.1700
    4 C4       -1.1770     3.1637    -0.8698 C.3    1 <0>      -0.1100
    5 C5       -0.0849     4.1387    -0.4198 C.3    1 <0>      -0.0500
    6 C6        1.1927     3.3764    -0.1790 C.2    1 <0>       0.0700
    7 C7        1.2192     2.0061     0.0574 C.2    1 <0>      -0.2500
    8 C8        2.6128     1.6396     0.2362 C.2    1 <0>      -0.1100
    9 C9        3.3163     2.7828     0.1017 C.2    1 <0>      -0.0300
   10 N10       2.4538     3.8182    -0.1410 N.pl3  1 <0>      -0.4300
   11 C11       2.8570     5.2124    -0.3407 C.3    1 <0>       0.0800
   12 C12       2.7615     5.9662     0.9873 C.3    1 <0>      -0.0300
   13 N13       3.1659     7.3642     0.7870 N.4    1 <0>      -0.3800
   14 H14       4.0859     7.3910     0.3737 H      1 <0>       0.4300
   15 C15       3.1931     8.0544     2.0828 C.3    1 <0>      -0.0200
   16 C16       3.7242     9.4787     1.8906 C.3    1 <0>       0.1000
   17 N17       2.9085    10.1460     0.8642 N.pl3  1 <0>      -0.6400
   18 C18       2.3552    11.4076     1.0948 C.ar   1 <0>       0.2100
   19 C19       2.4760    12.0027     2.3441 C.ar   1 <0>      -0.1800
   20 C20       1.9282    13.2506     2.5694 C.ar   1 <0>      -0.0600
   21 C21       1.2597    13.9077     1.5533 C.ar   1 <0>      -0.1500
   22 C22       1.1368    13.3178     0.3070 C.ar   1 <0>       0.0100
   23 Cl23      0.2959    14.1465    -0.9657 Cl     1 <0>      -0.0500
   24 C24       1.6880    12.0721     0.0737 C.ar   1 <0>      -0.1800
   25 C25       2.6926     9.4472    -0.4121 C.3    1 <0>       0.1000
   26 C26       2.2090     8.0249    -0.1096 C.3    1 <0>      -0.0300
   27 H27      -2.1341     1.3567    -0.1783 H      1 <0>       0.1000
   28 H28      -1.4706     2.3815     1.1206 H      1 <0>       0.1000
   29 H29      -0.9266     2.7752    -1.8570 H      1 <0>       0.0800
   30 H30      -2.1292     3.6914    -0.9236 H      1 <0>       0.0900
   31 H31       0.0780     4.8863    -1.1961 H      1 <0>       0.0800
   32 H32      -0.3942     4.6314     0.5020 H      1 <0>       0.0900
   33 H33       3.0056     0.6537     0.4365 H      1 <0>       0.1600
   34 H34       4.3901     2.8687     0.1779 H      1 <0>       0.1800
   35 H35       3.8841     5.2451    -0.7041 H      1 <0>       0.1200
   36 H36       2.1978     5.6801    -1.0721 H      1 <0>       0.1100
   37 H37       1.7344     5.9335     1.3506 H      1 <0>       0.1400
   38 H38       3.4207     5.4985     1.7187 H      1 <0>       0.1400
   39 H39       2.1845     8.0950     2.4942 H      1 <0>       0.1400
   40 H40       3.8442     7.5132     2.7692 H      1 <0>       0.1400
   41 H41       3.6511    10.0267     2.8300 H      1 <0>       0.1300
   42 H42       4.7638     9.4412     1.5650 H      1 <0>       0.0900
   43 H43       2.9974    11.4899     3.1388 H      1 <0>       0.1300
   44 H44       2.0221    13.7134     3.5407 H      1 <0>       0.1400
   45 H45       0.8321    14.8832     1.7323 H      1 <0>       0.1400
   46 H46       1.5921    11.6120    -0.8987 H      1 <0>       0.1300
   47 H47       1.9375     9.9744    -0.9952 H      1 <0>       0.1300
   48 H48       3.6280     9.4064    -0.9702 H      1 <0>       0.0900
   49 H49       2.1355     7.4605    -1.0392 H      1 <0>       0.1400
   50 H50       1.2301     8.0678     0.3681 H      1 <0>       0.1400
@<TRIPOS>BOND
   1    1    2 2
   2    2    7 1
   3    2    3 1
   4    3    4 1
   5    3   27 1
   6    3   28 1
   7    4    5 1
   8    4   29 1
   9    4   30 1
  10    5    6 1
  11    5   31 1
  12    5   32 1
  13    6   10 1
  14    6    7 2
  15    7    8 1
  16    8    9 2
  17    8   33 1
  18    9   10 1
  19    9   34 1
  20   10   11 1
  21   11   12 1
  22   11   35 1
  23   11   36 1
  24   12   13 1
  25   12   37 1
  26   12   38 1
  27   13   14 1
  28   13   26 1
  29   13   15 1
  30   15   16 1
  31   15   39 1
  32   15   40 1
  33   16   17 1
  34   16   41 1
  35   16   42 1
  36   17   18 1
  37   17   25 1
  38   18   24 ar
  39   18   19 ar
  40   19   20 ar
  41   19   43 1
  42   20   21 ar
  43   20   44 1
  44   21   22 ar
  45   21   45 1
  46   22   23 1
  47   22   24 ar
  48   24   46 1
  49   25   26 1
  50   25   47 1
  51   25   48 1
  52   26   49 1
  53   26   50 1
