@<TRIPOS>MOLECULE
ZINC000001577199
22    21    1     0     0
SMALL
USER_CHARGES
@<TRIPOS>ATOM
1      C1     -0.0187    1.5258    0.0104 C.3      1 ZINC000001577199   -0.1500
2      C2      0.0021   -0.0041    0.0020 C.3      1 ZINC000001577199   -0.1300
3      C3     -1.4333   -0.5336    0.0129 C.3      1 ZINC000001577199   -0.1200
4      C4     -1.4126   -2.0635    0.0045 C.3      1 ZINC000001577199   -0.1200
5      C5     -2.8479   -2.5931    0.0153 C.3      1 ZINC000001577199   -0.0900
6      C6     -2.8272   -4.1229    0.0069 C.3      1 ZINC000001577199   -0.1800
7      C7     -4.2410   -4.6445    0.0176 C.2      1 ZINC000001577199    0.4900
8      O8     -5.1783   -3.8649    0.0307 O.co2    1 ZINC000001577199   -0.7000
9      O9     -4.4475   -5.8461    0.0131 O.co2    1 ZINC000001577199   -0.7100
10     H10     1.0039    1.9031    0.0027 H        1 ZINC000001577199    0.0500
11     H11    -0.5459    1.8868   -0.8726 H        1 ZINC000001577199    0.0500
12     H12    -0.5289    1.8773    0.9072 H        1 ZINC000001577199    0.0500
13     H13     0.5123   -0.3556   -0.8948 H        1 ZINC000001577199    0.0600
14     H14     0.5293   -0.3651    0.8851 H        1 ZINC000001577199    0.0600
15     H15    -1.9435   -0.1821    0.9097 H        1 ZINC000001577199    0.0600
16     H16    -1.9605   -0.1726   -0.8702 H        1 ZINC000001577199    0.0600
17     H17    -0.9024   -2.4150   -0.8923 H        1 ZINC000001577199    0.0500
18     H18    -0.8854   -2.4246    0.8875 H        1 ZINC000001577199    0.0500
19     H19    -3.3581   -2.2415    0.9121 H        1 ZINC000001577199    0.0600
20     H20    -3.3751   -2.2320   -0.8677 H        1 ZINC000001577199    0.0600
21     H21    -2.3170   -4.4744   -0.8899 H        1 ZINC000001577199    0.0500
22     H22    -2.3000   -4.4840    0.8900 H        1 ZINC000001577199    0.0500
@<TRIPOS>BOND
1     1     2     1
2     1     10    1
3     1     11    1
4     1     12    1
5     2     3     1
6     2     13    1
7     2     14    1
8     3     4     1
9     3     15    1
10    3     16    1
11    4     5     1
12    4     17    1
13    4     18    1
14    5     6     1
15    5     19    1
16    5     20    1
17    6     7     1
18    6     21    1
19    6     22    1
20    7     8     ar
21    7     9     ar
@<TRIPOS>SUBSTRUCTURE
1   ZINC000001577199 1     RESIDUE    1   A     ZIN   1
