@<TRIPOS>MOLECULE
ZINC000043203372
46    48    1     0     0
SMALL
USER_CHARGES
@<TRIPOS>ATOM
1      C1     -0.0184    1.5028    0.0103 C.3      1 ZINC000043203372   -0.1100
2      C2      0.0021   -0.0041    0.0020 C.2      1 ZINC000043203372    0.1000
3      C3      0.0084   -0.7993   -1.0967 C.2      1 ZINC000043203372   -0.0600
4      O4     -0.0022   -0.3775   -2.3916 O.3      1 ZINC000043203372   -0.2100
5      C5      1.1911   -0.1638   -3.0019 C.ar     1 ZINC000043203372    0.1600
6      C6      2.3744   -0.3819   -2.3059 C.ar     1 ZINC000043203372   -0.2000
7      C7      3.5873   -0.1662   -2.9215 C.ar     1 ZINC000043203372    0.0100
8      C8      4.8696   -0.4030   -2.1660 C.3      1 ZINC000043203372   -0.1300
9      C9      3.6273    0.2721   -4.2481 C.ar     1 ZINC000043203372   -0.0700
10     C10     4.8864    0.4971   -4.8921 C.1      1 ZINC000043203372    0.2600
11     N11     5.8852    0.6756   -5.4030 N.1      1 ZINC000043203372   -0.4200
12     C12     2.4352    0.4897   -4.9444 C.ar     1 ZINC000043203372    0.0100
13     C13     2.4724    0.9619   -6.3751 C.3      1 ZINC000043203372   -0.1200
14     C14     1.2265    0.2670   -4.3230 C.ar     1 ZINC000043203372   -0.1600
15     C15     0.0283   -2.1319   -0.6632 C.2      1 ZINC000043203372    0.1300
16     C16     0.0416   -3.3486   -1.5524 C.3      1 ZINC000043203372   -0.0900
17     C17     0.2662   -4.7077   -0.8866 C.3      1 ZINC000043203372   -0.1600
18     C18    -1.1198   -4.3353   -1.4170 C.3      1 ZINC000043203372   -0.1600
19     N19     0.0337   -2.1394    0.6452 N.2      1 ZINC000043203372   -0.2600
20     N20     0.0234   -0.8124    1.0935 N.pl3    1 ZINC000043203372   -0.3600
21     C21     0.0251   -0.3741    2.4914 C.3      1 ZINC000043203372   -0.3500
22     S22     1.7360   -0.1783    3.0617 S.o2     1 ZINC000043203372    2.4000
23     C23     1.4998    0.3575    4.7785 C.3      1 ZINC000043203372   -0.6500
24     O24     2.3601   -1.4549    3.0676 O.2      1 ZINC000043203372   -0.9100
25     O25     2.3369    0.8843    2.3343 O.2      1 ZINC000043203372   -0.9200
26     H26     1.0042    1.8801    0.0026 H        1 ZINC000043203372    0.1000
27     H27    -0.5455    1.8639   -0.8728 H        1 ZINC000043203372    0.1000
28     H28    -0.5286    1.8543    0.9071 H        1 ZINC000043203372    0.0800
29     H29     2.3425   -0.7206   -1.2809 H        1 ZINC000043203372    0.1300
30     H30     5.1885   -1.4358   -2.3063 H        1 ZINC000043203372    0.0800
31     H31     5.6413    0.2697   -2.5402 H        1 ZINC000043203372    0.0700
32     H32     4.7063   -0.2141   -1.1049 H        1 ZINC000043203372    0.0800
33     H33     2.4912    0.0998   -7.0418 H        1 ZINC000043203372    0.0800
34     H34     1.5868    1.5625   -6.5826 H        1 ZINC000043203372    0.0800
35     H35     3.3661    1.5648   -6.5355 H        1 ZINC000043203372    0.0700
36     H36     0.3049    0.4346   -4.8605 H        1 ZINC000043203372    0.1400
37     H37     0.4619   -3.1994   -2.5470 H        1 ZINC000043203372    0.1300
38     H38     0.8345   -5.4530   -1.4431 H        1 ZINC000043203372    0.1000
39     H39     0.4042   -4.7218    0.1945 H        1 ZINC000043203372    0.1000
40     H40    -1.8936   -4.1045   -0.6848 H        1 ZINC000043203372    0.1000
41     H41    -1.4634   -4.8356   -2.3224 H        1 ZINC000043203372    0.1000
42     H42    -0.4967    0.5793    2.5740 H        1 ZINC000043203372    0.1600
43     H43    -0.4798   -1.1191    3.1064 H        1 ZINC000043203372    0.1600
44     H44     0.9515   -0.4090    5.3262 H        1 ZINC000043203372    0.1300
45     H45     2.4714    0.5141    5.2472 H        1 ZINC000043203372    0.1400
46     H46     0.9346    1.2894    4.7938 H        1 ZINC000043203372    0.1300
@<TRIPOS>BOND
1     1     2     1
2     1     26    1
3     1     27    1
4     1     28    1
5     2     20    1
6     2     3     2
7     3     4     1
8     3     15    1
9     4     5     1
10    5     14    ar
11    5     6     ar
12    6     7     ar
13    6     29    1
14    7     8     1
15    7     9     ar
16    8     30    1
17    8     31    1
18    8     32    1
19    9     10    1
20    9     12    ar
21    10    11    3
22    12    13    1
23    12    14    ar
24    13    33    1
25    13    34    1
26    13    35    1
27    14    36    1
28    15    16    1
29    15    19    2
30    16    18    1
31    16    17    1
32    16    37    1
33    17    18    1
34    17    38    1
35    17    39    1
36    18    40    1
37    18    41    1
38    19    20    1
39    20    21    1
40    21    22    1
41    21    42    1
42    21    43    1
43    22    23    1
44    22    24    2
45    22    25    2
46    23    44    1
47    23    45    1
48    23    46    1
@<TRIPOS>SUBSTRUCTURE
1   ZINC000043203372 1     RESIDUE    1   A     ZIN   1
