@<TRIPOS>MOLECULE
ZINC000005273724
55    58    1     0     0
SMALL
USER_CHARGES
@<TRIPOS>ATOM
1      C1      0.0406    1.3841   -0.3881 C.3      1 ZINC000005273724   -0.1600
2      C2     -0.0163   -0.1341   -0.2072 C.3      1 ZINC000005273724   -0.0400
3      C3      0.4621   -0.8202   -1.4722 C.3      1 ZINC000005273724   -0.0900
4      C4      1.8553   -0.2568   -1.7954 C.3      1 ZINC000005273724   -0.1300
5      C5      2.8288   -0.4664   -0.6400 C.3      1 ZINC000005273724   -0.0600
6      H6      3.0061   -1.5338   -0.5085 H        1 ZINC000005273724    0.0700
7      C7      2.2863    0.1232    0.6731 C.3      1 ZINC000005273724   -0.0800
8      H8      2.1564    1.2000    0.5651 H        1 ZINC000005273724    0.0900
9      C9      3.2609   -0.1648    1.8151 C.3      1 ZINC000005273724   -0.1100
10     C10     4.6017    0.5289    1.5475 C.3      1 ZINC000005273724   -0.1000
11     C11     5.0928    0.0712    0.1845 C.2      1 ZINC000005273724   -0.0200
12     C12     6.3157   -0.4419    0.0810 C.2      1 ZINC000005273724   -0.2400
13     C13     6.7780   -0.9239   -1.2284 C.2      1 ZINC000005273724    0.3900
14     O14     7.9559   -0.9774   -1.5142 O.2      1 ZINC000005273724   -0.4600
15     C15     5.6948   -1.3509   -2.2011 C.3      1 ZINC000005273724   -0.1700
16     C16     4.6944   -0.2010   -2.3128 C.3      1 ZINC000005273724   -0.1100
17     C17     4.1537    0.2296   -0.9537 C.3      1 ZINC000005273724   -0.0300
18     C18     3.8320    1.7215   -1.0622 C.3      1 ZINC000005273724   -0.1600
19     C19     0.9401   -0.5635    0.9378 C.3      1 ZINC000005273724   -0.0800
20     H20     1.0650   -1.6460    0.9614 H        1 ZINC000005273724    0.0900
21     C21     0.1821   -0.0862    2.1817 C.3      1 ZINC000005273724   -0.1100
22     C22    -1.2878   -0.4733    1.8634 C.3      1 ZINC000005273724   -0.1500
23     C23    -1.3912   -0.5412    0.3124 C.3      1 ZINC000005273724    0.1000
24     O24    -1.6804   -1.8765   -0.1066 O.3      1 ZINC000005273724   -0.5400
25     C25    -2.4554    0.4043   -0.1820 C.2      1 ZINC000005273724    0.3400
26     O26    -2.7599    1.3689    0.4778 O.2      1 ZINC000005273724   -0.4200
27     C27    -3.1397    0.1462   -1.4996 C.3      1 ZINC000005273724    0.0300
28     O28    -4.1015    1.1739   -1.7462 O.3      1 ZINC000005273724   -0.5600
29     H29     1.0537    1.6799   -0.6605 H        1 ZINC000005273724    0.0800
30     H30    -0.6495    1.6820   -1.1775 H        1 ZINC000005273724    0.0500
31     H31    -0.2420    1.8720    0.5447 H        1 ZINC000005273724    0.0700
32     H32     0.5253   -1.8961   -1.3098 H        1 ZINC000005273724    0.0800
33     H33    -0.2238   -0.6072   -2.2921 H        1 ZINC000005273724    0.0600
34     H34     2.2438   -0.7563   -2.6830 H        1 ZINC000005273724    0.0700
35     H35     1.7689    0.8106   -1.9987 H        1 ZINC000005273724    0.0700
36     H36     2.8420    0.2063    2.7505 H        1 ZINC000005273724    0.0700
37     H37     3.4193   -1.2404    1.8930 H        1 ZINC000005273724    0.0700
38     H38     4.4649    1.6103    1.5472 H        1 ZINC000005273724    0.0800
39     H39     5.3233    0.2470    2.3143 H        1 ZINC000005273724    0.0800
40     H40     6.9592   -0.5037    0.9462 H        1 ZINC000005273724    0.1400
41     H41     6.1341   -1.5550   -3.1775 H        1 ZINC000005273724    0.0900
42     H42     5.1925   -2.2430   -1.8269 H        1 ZINC000005273724    0.1000
43     H43     5.1875    0.6516   -2.7797 H        1 ZINC000005273724    0.0700
44     H44     3.8641   -0.5157   -2.9449 H        1 ZINC000005273724    0.0900
45     H45     3.0875    1.8768   -1.8431 H        1 ZINC000005273724    0.0700
46     H46     3.4399    2.0788   -0.1101 H        1 ZINC000005273724    0.0700
47     H47     4.7395    2.2717   -1.3109 H        1 ZINC000005273724    0.0600
48     H48     0.5342   -0.6079    3.0716 H        1 ZINC000005273724    0.0700
49     H49     0.2793    0.9928    2.3021 H        1 ZINC000005273724    0.0700
50     H50    -1.5246   -1.4403    2.3072 H        1 ZINC000005273724    0.0800
51     H51    -1.9665    0.2899    2.2441 H        1 ZINC000005273724    0.0800
52     H52    -2.5217   -2.2192    0.2250 H        1 ZINC000005273724    0.3800
53     H53    -2.3989    0.1423   -2.2991 H        1 ZINC000005273724    0.0800
54     H54    -3.6419   -0.8206   -1.4649 H        1 ZINC000005273724    0.0800
55     H55    -4.5815    1.0717   -2.5795 H        1 ZINC000005273724    0.3900
@<TRIPOS>BOND
1     1     2     1
2     1     29    1
3     1     30    1
4     1     31    1
5     2     19    1
6     2     23    1
7     2     3     1
8     3     4     1
9     3     32    1
10    3     33    1
11    4     5     1
12    4     34    1
13    4     35    1
14    5     6     1
15    5     17    1
16    5     7     1
17    7     8     1
18    7     9     1
19    7     19    1
20    9     10    1
21    9     36    1
22    9     37    1
23    10    11    1
24    10    38    1
25    10    39    1
26    11    17    1
27    11    12    2
28    12    13    1
29    12    40    1
30    13    14    2
31    13    15    1
32    15    16    1
33    15    41    1
34    15    42    1
35    16    17    1
36    16    43    1
37    16    44    1
38    17    18    1
39    18    45    1
40    18    46    1
41    18    47    1
42    19    20    1
43    19    21    1
44    21    22    1
45    21    48    1
46    21    49    1
47    22    23    1
48    22    50    1
49    22    51    1
50    23    24    1
51    23    25    1
52    24    52    1
53    25    26    2
54    25    27    1
55    27    28    1
56    27    53    1
57    27    54    1
58    28    55    1
@<TRIPOS>SUBSTRUCTURE
1   ZINC000005273724 1     RESIDUE    1   A     ZIN   1
