@<TRIPOS>MOLECULE
ZINC000043204685
69    72    1     0     0
SMALL
USER_CHARGES
@<TRIPOS>ATOM
1      C1      5.2409   -0.7841   -1.3480 C.3      1 ZINC000043204685   -0.1100
2      C2      3.9773   -0.5353   -0.5655 C.2      1 ZINC000043204685    0.4300
3      N3      3.6530    0.6865   -0.2551 N.2      1 ZINC000043204685   -0.5400
4      C4      2.5100    0.9368    0.4490 C.2      1 ZINC000043204685    0.2700
5      N5      2.3007    2.1168    1.0014 N.2      1 ZINC000043204685   -0.2200
6      N6      3.2573    3.1318    0.8691 N.am     1 ZINC000043204685   -0.5600
7      C7      3.0442    4.3337    1.4318 C.2      1 ZINC000043204685    0.5300
8      O8      2.0224    4.5398    2.0550 O.2      1 ZINC000043204685   -0.4900
9      C9      4.0732    5.4255    1.2895 C.3      1 ZINC000043204685   -0.1200
10     H10     5.0164    5.0947    1.7242 H        1 ZINC000043204685    0.1100
11     C11     3.5886    6.6810    2.0173 C.3      1 ZINC000043204685   -0.0900
12     C12     4.7607    7.6465    2.2042 C.3      1 ZINC000043204685   -0.1100
13     C13     5.8042    7.0323    3.1601 C.3      1 ZINC000043204685   -0.1200
14     C14     6.3183    8.2374    3.9862 C.3      1 ZINC000043204685   -0.1200
15     C15     5.0352    9.0785    4.1986 C.3      1 ZINC000043204685   -0.1300
16     C16     4.2718    8.9476    2.8645 C.3      1 ZINC000043204685   -0.1200
17     C17     4.2784    5.7427   -0.1931 C.3      1 ZINC000043204685    0.1400
18     N18     5.4051    6.6670   -0.3434 N.am     1 ZINC000043204685   -0.4700
19     O19     5.1723    8.0114   -0.7218 O.3      1 ZINC000043204685   -0.3300
20     C20     6.6632    6.2376   -0.1213 C.2      1 ZINC000043204685    0.4800
21     O21     7.5959    7.0027   -0.2457 O.2      1 ZINC000043204685   -0.5400
22     C22     1.5195   -0.1401    0.5762 C.2      1 ZINC000043204685    0.0000
23     F23     0.2646    0.1105    1.0094 F        1 ZINC000043204685   -0.1100
24     C24     1.9103   -1.3997    0.2364 C.2      1 ZINC000043204685    0.3600
25     N25     1.0291   -2.4623    0.3280 N.pl3    1 ZINC000043204685   -0.6400
26     C26     1.4939   -3.8012    0.7235 C.3      1 ZINC000043204685    0.1000
27     C27     0.9851   -4.8153   -0.2985 C.3      1 ZINC000043204685   -0.0400
28     N28    -0.4752   -4.7042   -0.4217 N.4      1 ZINC000043204685   -0.3800
29     H29    -0.9118   -4.8372    0.4782 H        1 ZINC000043204685    0.4300
30     C30    -0.9516   -5.7343   -1.3604 C.3      1 ZINC000043204685   -0.0400
31     C31    -0.2653   -5.5327   -2.7140 C.3      1 ZINC000043204685    0.0300
32     O32    -0.5416   -4.2157   -3.1973 O.3      1 ZINC000043204685   -0.3500
33     C33    -0.1381   -3.1753   -2.3013 C.3      1 ZINC000043204685    0.0500
34     C34    -0.8320   -3.3817   -0.9534 C.3      1 ZINC000043204685   -0.0200
35     H35    -1.9110   -3.3302   -1.0990 H        1 ZINC000043204685    0.1600
36     C36    -0.4003   -2.2901    0.0271 C.3      1 ZINC000043204685    0.1200
37     N37     3.2043   -1.5925   -0.2008 N.pl3    1 ZINC000043204685   -0.6500
38     H38     5.0181   -0.7613   -2.4148 H        1 ZINC000043204685    0.1000
39     H39     5.9721   -0.0106   -1.1130 H        1 ZINC000043204685    0.1100
40     H40     5.6465   -1.7603   -1.0824 H        1 ZINC000043204685    0.0900
41     H41     4.0735    2.9672    0.3714 H        1 ZINC000043204685    0.4000
42     H42     2.8097    7.1648    1.4280 H        1 ZINC000043204685    0.0700
43     H43     3.1873    6.4038    2.9921 H        1 ZINC000043204685    0.0800
44     H44     5.2200    7.8667    1.2405 H        1 ZINC000043204685    0.1000
45     H45     5.3365    6.2945    3.8121 H        1 ZINC000043204685    0.0600
46     H46     6.6200    6.5811    2.5953 H        1 ZINC000043204685    0.0600
47     H47     7.0618    8.8022    3.4238 H        1 ZINC000043204685    0.0700
48     H48     6.7270    7.9082    4.9416 H        1 ZINC000043204685    0.0600
49     H49     5.2898   10.1206    4.3918 H        1 ZINC000043204685    0.0600
50     H50     4.4434    8.6712    5.0184 H        1 ZINC000043204685    0.0600
51     H51     4.4946    9.7992    2.2217 H        1 ZINC000043204685    0.0600
52     H52     3.1995    8.8911    3.0519 H        1 ZINC000043204685    0.0600
53     H53     4.4894    4.8214   -0.7360 H        1 ZINC000043204685    0.0900
54     H54     3.3753    6.2024   -0.5947 H        1 ZINC000043204685    0.1100
55     H55     5.9760    8.5442   -0.7952 H        1 ZINC000043204685    0.4000
56     H56     6.8407    5.2121    0.1674 H        1 ZINC000043204685    0.1500
57     H57     2.5835   -3.8197    0.7462 H        1 ZINC000043204685    0.1200
58     H58     1.1013   -4.0497    1.7095 H        1 ZINC000043204685    0.1000
59     H59     1.2464   -5.8224    0.0266 H        1 ZINC000043204685    0.1500
60     H60     1.4472   -4.6147   -1.2651 H        1 ZINC000043204685    0.1300
61     H61    -0.7075   -6.7229   -0.9715 H        1 ZINC000043204685    0.1500
62     H62    -2.0311   -5.6454   -1.4822 H        1 ZINC000043204685    0.1400
63     H63     0.8112   -5.6587   -2.5978 H        1 ZINC000043204685    0.0800
64     H64    -0.6423   -6.2674   -3.4255 H        1 ZINC000043204685    0.1400
65     H65    -0.4234   -2.2076   -2.7139 H        1 ZINC000043204685    0.1400
66     H66     0.9426   -3.2107   -2.1643 H        1 ZINC000043204685    0.0800
67     H67    -0.9800   -2.3745    0.9463 H        1 ZINC000043204685    0.1100
68     H68    -0.5638   -1.3103   -0.4218 H        1 ZINC000043204685    0.1300
69     H69     3.5661   -2.4912   -0.2487 H        1 ZINC000043204685    0.4200
@<TRIPOS>BOND
1     1     2     1
2     1     38    1
3     1     39    1
4     1     40    1
5     2     37    1
6     2     3     2
7     3     4     1
8     4     5     2
9     4     22    1
10    5     6     1
11    6     7     am
12    6     41    1
13    7     8     2
14    7     9     1
15    9     10    1
16    9     11    1
17    9     17    1
18    11    12    1
19    11    42    1
20    11    43    1
21    12    16    1
22    12    13    1
23    12    44    1
24    13    14    1
25    13    45    1
26    13    46    1
27    14    15    1
28    14    47    1
29    14    48    1
30    15    16    1
31    15    49    1
32    15    50    1
33    16    51    1
34    16    52    1
35    17    18    1
36    17    53    1
37    17    54    1
38    18    19    1
39    18    20    am
40    19    55    1
41    20    21    2
42    20    56    1
43    22    23    1
44    22    24    2
45    24    25    1
46    24    37    1
47    25    36    1
48    25    26    1
49    26    27    1
50    26    57    1
51    26    58    1
52    27    28    1
53    27    59    1
54    27    60    1
55    28    29    1
56    28    34    1
57    28    30    1
58    30    31    1
59    30    61    1
60    30    62    1
61    31    32    1
62    31    63    1
63    31    64    1
64    32    33    1
65    33    34    1
66    33    65    1
67    33    66    1
68    34    35    1
69    34    36    1
70    36    67    1
71    36    68    1
72    37    69    1
@<TRIPOS>SUBSTRUCTURE
1   ZINC000043204685 1     RESIDUE    1   A     ZIN   1
