@<TRIPOS>MOLECULE
ZINC000003789397
  56   58    0    0    0
SMALL
USER_CHARGES
NO_NAME
@<TRIPOS>ATOM
    1 C1        3.8573    -2.7193    -8.1633 C.3    1 <0>      -0.1500
    2 C2        3.7814    -2.5962    -6.6401 C.3    1 <0>      -0.1200
    3 C3        2.6604    -3.4932    -6.1112 C.3    1 <0>      -0.1200
    4 C4        2.5845    -3.3701    -4.5880 C.3    1 <0>       0.0400
    5 N5        1.5083    -4.2313    -4.0802 N.3    1 <0>      -0.5000
    6 C6        0.1953    -3.8356    -4.6516 C.3    1 <0>       0.0300
    7 C7       -0.8464    -4.4145    -3.6703 C.3    1 <0>      -0.1200
    8 C8       -0.0964    -4.5616    -2.3303 C.3    1 <0>      -0.1200
    9 C9        1.3353    -4.0592    -2.6148 C.3    1 <0>       0.0500
   10 H10       1.4307    -3.0083    -2.3415 H      1 <0>       0.0600
   11 C11       2.3584    -4.9028    -1.8515 C.3    1 <0>       0.1400
   12 N12       2.1779    -4.7042    -0.4113 N.am   1 <0>      -0.7300
   13 C13       3.0344    -5.2733     0.4600 C.2    1 <0>       0.5600
   14 O14       3.9568    -5.9515     0.0507 O.2    1 <0>      -0.5200
   15 C15       2.8527    -5.0733     1.9104 C.ar   1 <0>      -0.1800
   16 C16       1.7915    -4.3001     2.3814 C.ar   1 <0>       0.0500
   17 C17       1.6197    -4.1106     3.7357 C.ar   1 <0>      -0.7200
   18 S18       0.2747    -3.1374     4.3259 S.o2   1 <0>       2.7100
   19 N19      -1.0069    -4.1606     4.5560 N.am   1 <0>      -1.2500
   20 O20       0.6519    -2.6708     5.6140 O.2    1 <0>      -0.9600
   21 O21      -0.0905    -2.2700     3.2612 O.2    1 <0>      -0.9600
   22 C22       2.5052    -4.6864     4.6333 C.ar   1 <0>       0.0600
   23 C23       3.5578    -5.4491     4.1791 C.ar   1 <0>      -0.2000
   24 C24       3.7460    -5.6667     2.8208 C.ar   1 <0>       0.2300
   25 O25       4.8244    -6.4609     2.5927 O.3    1 <0>      -0.2600
   26 C26       5.6722    -6.4544     3.7540 C.3    1 <0>       0.0700
   27 H27       6.4148    -5.6595     3.6856 H      1 <0>       0.1000
   28 C28       6.3509    -7.8133     3.9373 C.3    1 <0>      -0.1500
   29 C29       4.6717    -6.1802     4.9039 C.3    1 <0>      -0.1100
   30 H30       4.0623    -3.7550    -8.4343 H      1 <0>       0.0500
   31 H31       2.9079    -2.4104    -8.6005 H      1 <0>       0.0500
   32 H32       4.6559    -2.0803    -8.5401 H      1 <0>       0.0500
   33 H33       4.7308    -2.9051    -6.2028 H      1 <0>       0.0600
   34 H34       3.5764    -1.5605    -6.3691 H      1 <0>       0.0600
   35 H35       1.7110    -3.1843    -6.5484 H      1 <0>       0.0600
   36 H36       2.8654    -4.5289    -6.3822 H      1 <0>       0.0700
   37 H37       3.5340    -3.6790    -4.1508 H      1 <0>       0.0800
   38 H38       2.3795    -2.3344    -4.3170 H      1 <0>       0.0400
   39 H39       0.1123    -2.7497    -4.6971 H      1 <0>       0.0500
   40 H40       0.0658    -4.2695    -5.6431 H      1 <0>       0.0900
   41 H41      -1.6859    -3.7280    -3.5609 H      1 <0>       0.0700
   42 H42      -1.1945    -5.3871    -4.0181 H      1 <0>       0.0700
   43 H43      -0.5678    -3.9473    -1.5632 H      1 <0>       0.0700
   44 H44      -0.0764    -5.6065    -2.0204 H      1 <0>       0.0800
   45 H45       2.2144    -5.9557    -2.0939 H      1 <0>       0.0800
   46 H46       3.3654    -4.5987    -2.1368 H      1 <0>       0.0700
   47 H47       1.4421    -4.1631    -0.0847 H      1 <0>       0.4000
   48 H48       1.1028    -3.8483     1.6829 H      1 <0>       0.1500
   49 H49      -1.6644    -3.9677     5.2426 H      1 <0>       0.4200
   50 H50      -1.1000    -4.9530     4.0042 H      1 <0>       0.4200
   51 H51       2.3691    -4.5357     5.6940 H      1 <0>       0.1500
   52 H52       6.9781    -8.0260     3.0715 H      1 <0>       0.0700
   53 H53       6.9672    -7.7933     4.8362 H      1 <0>       0.0800
   54 H54       5.5912    -8.5888     4.0349 H      1 <0>       0.0700
   55 H55       5.1195    -5.5426     5.6661 H      1 <0>       0.1000
   56 H56       4.3135    -7.1130     5.3394 H      1 <0>       0.1000
@<TRIPOS>BOND
   1    1    2 1
   2    1   30 1
   3    1   31 1
   4    1   32 1
   5    2    3 1
   6    2   33 1
   7    2   34 1
   8    3    4 1
   9    3   35 1
  10    3   36 1
  11    4    5 1
  12    4   37 1
  13    4   38 1
  14    5    9 1
  15    5    6 1
  16    6    7 1
  17    6   39 1
  18    6   40 1
  19    7    8 1
  20    7   41 1
  21    7   42 1
  22    8    9 1
  23    8   43 1
  24    8   44 1
  25    9   10 1
  26    9   11 1
  27   11   12 1
  28   11   45 1
  29   11   46 1
  30   12   13 am
  31   12   47 1
  32   13   14 2
  33   13   15 1
  34   15   24 ar
  35   15   16 ar
  36   16   17 ar
  37   16   48 1
  38   17   18 1
  39   17   22 ar
  40   18   19 am
  41   18   20 2
  42   18   21 2
  43   19   49 1
  44   19   50 1
  45   22   23 ar
  46   22   51 1
  47   23   29 1
  48   23   24 ar
  49   24   25 1
  50   25   26 1
  51   26   27 1
  52   26   28 1
  53   26   29 1
  54   28   52 1
  55   28   53 1
  56   28   54 1
  57   29   55 1
  58   29   56 1
