@<TRIPOS>MOLECULE
ZINC000003915259
88    90    1     0     0
SMALL
USER_CHARGES
@<TRIPOS>ATOM
1      C1     -1.1647    1.7691    0.8157 C.3      1 ZINC000003915259   -0.1500
2      C2     -0.9103    0.2688    0.6561 C.3      1 ZINC000003915259   -0.1200
3      C3     -0.0936   -0.2394    1.8460 C.3      1 ZINC000003915259   -0.1500
4      C4     -2.2478   -0.4723    0.6019 C.3      1 ZINC000003915259    0.1100
5      N5     -2.9789   -0.0728   -0.6032 N.am     1 ZINC000003915259   -0.6200
6      C6     -2.7952   -0.8169   -1.8517 C.3      1 ZINC000003915259    0.1000
7      C7     -3.8143   -1.9561   -1.9211 C.3      1 ZINC000003915259    0.0900
8      H8     -3.7274   -2.5761   -1.0289 H        1 ZINC000003915259    0.1000
9      O9     -5.1332   -1.4114   -1.9962 O.3      1 ZINC000003915259   -0.5500
10     C10    -3.5430   -2.8081   -3.1627 C.3      1 ZINC000003915259    0.1300
11     H11    -2.5083   -3.1507   -3.1492 H        1 ZINC000003915259    0.1000
12     C12    -3.7864   -1.9701   -4.4194 C.3      1 ZINC000003915259   -0.1000
13     C13    -3.4020   -2.7690   -5.6381 C.ar     1 ZINC000003915259   -0.0600
14     C14    -2.1090   -2.7104   -6.1234 C.ar     1 ZINC000003915259   -0.1100
15     C15    -1.7564   -3.4432   -7.2412 C.ar     1 ZINC000003915259   -0.1100
16     C16    -2.6968   -4.2350   -7.8735 C.ar     1 ZINC000003915259   -0.1200
17     C17    -3.9896   -4.2943   -7.3876 C.ar     1 ZINC000003915259   -0.1100
18     C18    -4.3410   -3.5648   -6.2673 C.ar     1 ZINC000003915259   -0.1100
19     N19    -4.4407   -3.9658   -3.1662 N.am     1 ZINC000003915259   -0.7200
20     C20    -4.0908   -5.0879   -3.8255 C.2      1 ZINC000003915259    0.5200
21     O21    -3.0326   -5.1394   -4.4158 O.2      1 ZINC000003915259   -0.4900
22     C22    -5.0143   -6.2788   -3.8291 C.3      1 ZINC000003915259    0.1400
23     H23    -5.9680   -5.9976   -4.2756 H        1 ZINC000003915259    0.1200
24     C24    -5.2435   -6.7508   -2.3918 C.3      1 ZINC000003915259   -0.1600
25     C25    -3.9368   -7.2134   -1.8006 C.2      1 ZINC000003915259    0.5100
26     N26    -3.9094   -7.7531   -0.5659 N.am     1 ZINC000003915259   -0.8600
27     O27    -2.9099   -7.1001   -2.4358 O.2      1 ZINC000003915259   -0.5200
28     N28    -4.4107   -7.3625   -4.6085 N.am     1 ZINC000003915259   -0.6800
29     C29    -5.1963   -8.2675   -5.2251 C.2      1 ZINC000003915259    0.5700
30     O30    -6.3999   -8.2388   -5.0616 O.2      1 ZINC000003915259   -0.5400
31     C31    -4.5917   -9.2982   -6.1030 C.ar     1 ZINC000003915259    0.1100
32     C32    -5.4246  -10.2285   -6.7414 C.ar     1 ZINC000003915259   -0.1300
33     C33    -4.8805  -11.1824   -7.5528 C.ar     1 ZINC000003915259   -0.0600
34     C34    -3.4834  -11.1960   -7.7204 C.ar     1 ZINC000003915259   -0.0900
35     C35    -2.8567  -12.1482   -8.5404 C.ar     1 ZINC000003915259   -0.1000
36     C36    -1.5026  -12.1306   -8.6791 C.ar     1 ZINC000003915259   -0.1000
37     C37    -0.7269  -11.1795   -8.0172 C.ar     1 ZINC000003915259   -0.1000
38     C38    -1.2985  -10.2420   -7.2150 C.ar     1 ZINC000003915259   -0.0800
39     C39    -2.6965  -10.2261   -7.0457 C.ar     1 ZINC000003915259    0.1200
40     N40    -3.2834   -9.3155   -6.2699 N.ar     1 ZINC000003915259   -0.4300
41     C41    -3.8204    0.9792   -0.5632 C.2      1 ZINC000003915259    0.7200
42     O42    -4.4271    1.3107   -1.5634 O.2      1 ZINC000003915259   -0.5800
43     N43    -3.9893    1.6637    0.5854 N.am     1 ZINC000003915259   -0.7400
44     C44    -4.9040    2.8073    0.6289 C.3      1 ZINC000003915259    0.1900
45     C45    -6.3159    2.3452    0.2629 C.3      1 ZINC000003915259   -0.1600
46     C46    -4.9112    3.4013    2.0388 C.3      1 ZINC000003915259   -0.1600
47     C47    -4.4402    3.8696   -0.3697 C.3      1 ZINC000003915259   -0.1600
48     H48    -0.2118    2.2970    0.8543 H        1 ZINC000003915259    0.0600
49     H49    -1.7465    2.1311   -0.0320 H        1 ZINC000003915259    0.0600
50     H50    -1.7168    1.9479    1.7383 H        1 ZINC000003915259    0.0500
51     H51    -0.3582    0.0900   -0.2665 H        1 ZINC000003915259    0.0800
52     H52    -0.6458   -0.0605    2.7686 H        1 ZINC000003915259    0.0600
53     H53     0.0876   -1.3082    1.7323 H        1 ZINC000003915259    0.0600
54     H54     0.8592    0.2886    1.8846 H        1 ZINC000003915259    0.0600
55     H55    -2.0670   -1.5469    0.5777 H        1 ZINC000003915259    0.0800
56     H56    -2.8375   -0.2228    1.4840 H        1 ZINC000003915259    0.0700
57     H57    -2.9412   -0.1467   -2.6989 H        1 ZINC000003915259    0.0900
58     H58    -1.7867   -1.2291   -1.8841 H        1 ZINC000003915259    0.0900
59     H59    -5.2826   -0.8475   -2.7674 H        1 ZINC000003915259    0.3800
60     H60    -4.8412   -1.7019   -4.4786 H        1 ZINC000003915259    0.0800
61     H61    -3.1830   -1.0635   -4.3741 H        1 ZINC000003915259    0.0800
62     H62    -1.3743   -2.0919   -5.6294 H        1 ZINC000003915259    0.1100
63     H63    -0.7464   -3.3969   -7.6208 H        1 ZINC000003915259    0.1200
64     H64    -2.4215   -4.8070   -8.7473 H        1 ZINC000003915259    0.1100
65     H65    -4.7243   -4.9126   -7.8818 H        1 ZINC000003915259    0.1100
66     H66    -5.3511   -3.6111   -5.8877 H        1 ZINC000003915259    0.1100
67     H67    -5.2870   -3.9246   -2.6940 H        1 ZINC000003915259    0.4000
68     H68    -5.6397   -5.9272   -1.7978 H        1 ZINC000003915259    0.1100
69     H69    -5.9557   -7.5759   -2.3896 H        1 ZINC000003915259    0.1100
70     H70    -4.7307   -7.8437   -0.0578 H        1 ZINC000003915259    0.4000
71     H71    -3.0683   -8.0509   -0.1853 H        1 ZINC000003915259    0.4000
72     H72    -3.4457   -7.4287   -4.6808 H        1 ZINC000003915259    0.4300
73     H73    -6.4935  -10.1908   -6.5913 H        1 ZINC000003915259    0.1500
74     H74    -5.5058  -11.9074   -8.0525 H        1 ZINC000003915259    0.1500
75     H75    -3.4458  -12.8908   -9.0581 H        1 ZINC000003915259    0.1300
76     H76    -1.0223  -12.8638   -9.3102 H        1 ZINC000003915259    0.1300
77     H77     0.3457  -11.1878   -8.1436 H        1 ZINC000003915259    0.1300
78     H78    -0.6829   -9.5128   -6.7094 H        1 ZINC000003915259    0.1400
79     H79    -3.5053    1.3992    1.3833 H        1 ZINC000003915259    0.3900
80     H80    -6.6463    1.5884    0.9743 H        1 ZINC000003915259    0.0500
81     H81    -6.9965    3.1960    0.2952 H        1 ZINC000003915259    0.0600
82     H82    -6.3108    1.9220   -0.7416 H        1 ZINC000003915259    0.0800
83     H83    -3.9054    3.7305    2.2996 H        1 ZINC000003915259    0.0600
84     H84    -5.5918    4.2521    2.0712 H        1 ZINC000003915259    0.0700
85     H85    -5.2417    2.6444    2.7503 H        1 ZINC000003915259    0.0600
86     H86    -4.4350    3.4464   -1.3742 H        1 ZINC000003915259    0.0800
87     H87    -5.1207    4.7204   -0.3374 H        1 ZINC000003915259    0.0600
88     H88    -3.4343    4.1988   -0.1090 H        1 ZINC000003915259    0.0500
@<TRIPOS>BOND
1     1     2     1
2     1     48    1
3     1     49    1
4     1     50    1
5     2     3     1
6     2     4     1
7     2     51    1
8     3     52    1
9     3     53    1
10    3     54    1
11    4     5     1
12    4     55    1
13    4     56    1
14    5     6     1
15    5     41    am
16    6     7     1
17    6     57    1
18    6     58    1
19    7     8     1
20    7     9     1
21    7     10    1
22    9     59    1
23    10    11    1
24    10    12    1
25    10    19    1
26    12    13    1
27    12    60    1
28    12    61    1
29    13    18    ar
30    13    14    ar
31    14    15    ar
32    14    62    1
33    15    16    ar
34    15    63    1
35    16    17    ar
36    16    64    1
37    17    18    ar
38    17    65    1
39    18    66    1
40    19    20    am
41    19    67    1
42    20    21    2
43    20    22    1
44    22    23    1
45    22    24    1
46    22    28    1
47    24    25    1
48    24    68    1
49    24    69    1
50    25    26    am
51    25    27    2
52    26    70    1
53    26    71    1
54    28    29    am
55    28    72    1
56    29    30    2
57    29    31    1
58    31    40    ar
59    31    32    ar
60    32    33    ar
61    32    73    1
62    33    34    ar
63    33    74    1
64    34    39    ar
65    34    35    ar
66    35    36    ar
67    35    75    1
68    36    37    ar
69    36    76    1
70    37    38    ar
71    37    77    1
72    38    39    ar
73    38    78    1
74    39    40    ar
75    41    42    2
76    41    43    am
77    43    44    1
78    43    79    1
79    44    45    1
80    44    46    1
81    44    47    1
82    45    80    1
83    45    81    1
84    45    82    1
85    46    83    1
86    46    84    1
87    46    85    1
88    47    86    1
89    47    87    1
90    47    88    1
@<TRIPOS>SUBSTRUCTURE
1   ZINC000003915259 1     RESIDUE    1   A     ZIN   1
