@<TRIPOS>MOLECULE
ZINC000002138728
42    43    1     0     0
SMALL
USER_CHARGES
@<TRIPOS>ATOM
1      O1      0.0021   -0.0041    0.0020 O.co2    1 ZINC000002138728   -0.6800
2      C2     -0.0145    1.2150    0.0087 C.2      1 ZINC000002138728    0.4800
3      O3      1.0330    1.8389    0.0021 O.co2    1 ZINC000002138728   -0.6900
4      C4     -1.3296    1.9507    0.0190 C.3      1 ZINC000002138728    0.0800
5      O5     -2.4031    1.0074    0.0189 O.3      1 ZINC000002138728   -0.5400
6      C6     -1.4285    2.8359   -1.2250 C.3      1 ZINC000002138728   -0.1700
7      C7     -2.7638    3.5828   -1.2146 C.3      1 ZINC000002138728    0.0900
8      H8     -2.8343    4.2135   -2.1009 H        1 ZINC000002138728    0.0500
9      O9     -3.8372    2.6396   -1.2147 O.3      1 ZINC000002138728   -0.5300
10     C10    -2.8509    4.4545    0.0398 C.3      1 ZINC000002138728    0.1000
11     H11    -2.0321    5.1740    0.0398 H        1 ZINC000002138728    0.0700
12     O12    -4.0980    5.1521    0.0495 O.3      1 ZINC000002138728   -0.5500
13     C13    -2.7520    3.5692    1.2838 C.3      1 ZINC000002138728    0.1100
14     H14    -3.5707    2.8497    1.2837 H        1 ZINC000002138728    0.1100
15     O15    -2.8333    4.3833    2.4554 O.3      1 ZINC000002138728   -0.3500
16     C16    -4.0637    4.6058    2.9626 C.2      1 ZINC000002138728    0.4900
17     O17    -5.0405    4.1209    2.4236 O.2      1 ZINC000002138728   -0.4900
18     C18    -4.2180    5.4045    4.1237 C.2      1 ZINC000002138728   -0.1800
19     C19    -5.4499    5.6272    4.6316 C.2      1 ZINC000002138728   -0.0200
20     C20    -5.6099    6.4552    5.8351 C.ar     1 ZINC000002138728   -0.0600
21     C21    -4.4881    7.0186    6.4535 C.ar     1 ZINC000002138728   -0.0900
22     C22    -4.6410    7.7944    7.5817 C.ar     1 ZINC000002138728   -0.1300
23     C23    -5.9059    8.0189    8.1081 C.ar     1 ZINC000002138728    0.0900
24     O24    -6.0501    8.7842    9.2208 O.3      1 ZINC000002138728   -0.4900
25     C25    -7.0291    7.4612    7.4973 C.ar     1 ZINC000002138728    0.0800
26     O26    -8.2662    7.6841    8.0163 O.3      1 ZINC000002138728   -0.4900
27     C27    -6.8858    6.6873    6.3632 C.ar     1 ZINC000002138728   -0.1000
28     C28    -1.4167    2.8223    1.2734 C.3      1 ZINC000002138728   -0.0800
29     H29    -2.4106    0.4202   -0.7493 H        1 ZINC000002138728    0.3700
30     H30    -0.6098    3.5554   -1.2250 H        1 ZINC000002138728    0.0800
31     H31    -1.3665    2.2150   -2.1187 H        1 ZINC000002138728    0.0700
32     H32    -3.8448    2.0523   -1.9829 H        1 ZINC000002138728    0.3700
33     H33    -4.2292    5.7337   -0.7118 H        1 ZINC000002138728    0.3700
34     H34    -3.3508    5.8350    4.6022 H        1 ZINC000002138728    0.1400
35     H35    -6.3172    5.1968    4.1531 H        1 ZINC000002138728    0.1400
36     H36    -3.5028    6.8451    6.0466 H        1 ZINC000002138728    0.1400
37     H37    -3.7745    8.2288    8.0581 H        1 ZINC000002138728    0.1400
38     H38    -6.1746    9.7254    9.0374 H        1 ZINC000002138728    0.3900
39     H39    -8.7064    8.4683    7.6607 H        1 ZINC000002138728    0.3900
40     H40    -7.7548    6.2553    5.8892 H        1 ZINC000002138728    0.1400
41     H41    -1.3462    2.1917    2.1596 H        1 ZINC000002138728    0.0800
42     H42    -0.5979    3.5418    1.2734 H        1 ZINC000002138728    0.0900
@<TRIPOS>BOND
1     1     2     ar
2     2     3     ar
3     2     4     1
4     4     28    1
5     4     5     1
6     4     6     1
7     5     29    1
8     6     7     1
9     6     30    1
10    6     31    1
11    7     8     1
12    7     9     1
13    7     10    1
14    9     32    1
15    10    11    1
16    10    12    1
17    10    13    1
18    12    33    1
19    13    14    1
20    13    15    1
21    13    28    1
22    15    16    1
23    16    17    2
24    16    18    1
25    18    19    2
26    18    34    1
27    19    20    1
28    19    35    1
29    20    27    ar
30    20    21    ar
31    21    22    ar
32    21    36    1
33    22    23    ar
34    22    37    1
35    23    24    1
36    23    25    ar
37    24    38    1
38    25    26    1
39    25    27    ar
40    26    39    1
41    27    40    1
42    28    41    1
43    28    42    1
@<TRIPOS>SUBSTRUCTURE
1   ZINC000002138728 1     RESIDUE    1   A     ZIN   1
