@<TRIPOS>MOLECULE
ZINC000001679741
  16   15    0    0    0
SMALL
USER_CHARGES
NO_NAME
@<TRIPOS>ATOM
    1 C1       -0.0187     1.5258     0.0104 C.3    1 <0>      -0.1500
    2 C2        0.0021    -0.0041     0.0020 C.3    1 <0>       0.0600
    3 O3        0.7043    -0.4851     1.1784 O.3    1 <0>      -0.3400
    4 C4        0.8121    -1.8189     1.3229 C.2    1 <0>       0.4200
    5 O5        0.3333    -2.5596     0.4906 O.2    1 <0>      -0.4700
    6 C6        1.5198    -2.3856     2.5061 C.2    1 <0>       0.3700
    7 C7        1.6404    -3.8790     2.6679 C.3    1 <0>      -0.1900
    8 O8        1.9966    -1.6478     3.3350 O.2    1 <0>      -0.3900
    9 H9        1.0039     1.9031     0.0027 H      1 <0>       0.0700
   10 H10      -0.5459     1.8868    -0.8726 H      1 <0>       0.0800
   11 H11      -0.5289     1.8773     0.9072 H      1 <0>       0.0700
   12 H12      -1.0205    -0.3814     0.0098 H      1 <0>       0.0800
   13 H13       0.5123    -0.3556    -0.8948 H      1 <0>       0.0800
   14 H14       1.1536    -4.3759     1.8287 H      1 <0>       0.1000
   15 H15       2.6938    -4.1578     2.6937 H      1 <0>       0.1100
   16 H16       1.1611    -4.1835     3.5983 H      1 <0>       0.1100
@<TRIPOS>BOND
   1    1    2 1
   2    1    9 1
   3    1   10 1
   4    1   11 1
   5    2    3 1
   6    2   12 1
   7    2   13 1
   8    3    4 1
   9    4    5 2
  10    4    6 1
  11    6    7 1
  12    6    8 2
  13    7   14 1
  14    7   15 1
  15    7   16 1
