@<TRIPOS>MOLECULE
ZINC000002015985
  18   19    0    0    0
SMALL
USER_CHARGES
NO_NAME
@<TRIPOS>ATOM
    1 O1        0.0021    -0.0041     0.0020 O.2    1 <0>      -0.5000
    2 C2       -0.0144     1.2086     0.0087 C.2    1 <0>       0.5200
    3 C3       -1.2546     2.0839     0.0319 C.3    1 <0>       0.1000
    4 N4       -0.7691     3.3728     0.5529 N.am   1 <0>      -0.6400
    5 C5       -1.0278     4.4617     1.2856 C.2    1 <0>       0.5500
    6 O6       -2.1334     4.8201     1.6321 O.2    1 <0>      -0.5100
    7 C7        0.2638     5.1815     1.6195 C.3    1 <0>      -0.1400
    8 C8        1.3778     4.2096     1.1533 C.3    1 <0>      -0.1400
    9 C9        0.6308     3.4067     0.0754 C.3    1 <0>       0.3100
   10 H10       0.6992     3.9017    -0.8933 H      1 <0>       0.1100
   11 N11       1.0691     2.0183     0.0027 N.am   1 <0>      -0.7300
   12 H12      -1.6560     2.2050    -0.9743 H      1 <0>       0.1200
   13 H13      -2.0080     1.6620     0.6970 H      1 <0>       0.1200
   14 H14       0.3270     6.1231     1.0741 H      1 <0>       0.1200
   15 H15       0.3357     5.3566     2.6929 H      1 <0>       0.1100
   16 H16       2.2199     4.7533     0.7252 H      1 <0>       0.1000
   17 H17       1.7030     3.5641     1.9692 H      1 <0>       0.0900
   18 H18       1.9914     1.7221    -0.0467 H      1 <0>       0.4300
@<TRIPOS>BOND
   1    1    2 2
   2    2   11 am
   3    2    3 1
   4    3    4 1
   5    3   12 1
   6    3   13 1
   7    4    9 1
   8    4    5 am
   9    5    6 2
  10    5    7 1
  11    7    8 1
  12    7   14 1
  13    7   15 1
  14    8    9 1
  15    8   16 1
  16    8   17 1
  17    9   10 1
  18    9   11 1
  19   11   18 1
