@<TRIPOS>MOLECULE
ZINC000014191768
70    73    1     0     0
SMALL
USER_CHARGES
@<TRIPOS>ATOM
1      C1      7.2360   -2.5611    5.6976 C.3      1 ZINC000014191768   -0.1000
2      C2      6.0983   -2.2985    6.6503 C.2      1 ZINC000014191768    0.2000
3      N3      6.3115   -2.2127    7.9206 N.2      1 ZINC000014191768   -0.4500
4      S4      4.8294   -1.9146    8.6900 S.3      1 ZINC000014191768    0.2900
5      C5      3.8699   -1.9062    7.2076 C.2      1 ZINC000014191768    0.0900
6      C6      4.7940   -2.1377    6.1739 C.2      1 ZINC000014191768   -0.2800
7      C7      4.2457   -2.1802    4.8060 C.2      1 ZINC000014191768    0.5700
8      O8      4.9694   -2.3757    3.8456 O.2      1 ZINC000014191768   -0.4900
9      N9      2.9179   -1.9966    4.6498 N.am     1 ZINC000014191768   -0.5100
10     C10     2.3367   -2.0320    3.3055 C.3      1 ZINC000014191768    0.1300
11     C11     2.1030   -3.4636    2.8969 C.ar     1 ZINC000014191768   -0.1300
12     C12     3.1405   -4.2105    2.3709 C.ar     1 ZINC000014191768   -0.0900
13     C13     2.9261   -5.5237    1.9961 C.ar     1 ZINC000014191768   -0.1200
14     C14     1.6742   -6.0901    2.1477 C.ar     1 ZINC000014191768   -0.1000
15     C15     0.6370   -5.3435    2.6745 C.ar     1 ZINC000014191768   -0.1200
16     C16     0.8525   -4.0317    3.0533 C.ar     1 ZINC000014191768   -0.1000
17     C17     2.1136   -1.7799    5.7210 C.2      1 ZINC000014191768    0.4200
18     C18     0.6372   -1.5812    5.4928 C.3      1 ZINC000014191768    0.1900
19     H19     0.2882   -2.2857    4.7379 H        1 ZINC000014191768    0.1300
20     C20    -0.1179   -1.8205    6.8018 C.3      1 ZINC000014191768   -0.0800
21     C21    -1.6167   -1.6187    6.5701 C.3      1 ZINC000014191768   -0.1500
22     C22     0.1359   -3.2506    7.2828 C.3      1 ZINC000014191768   -0.1600
23     N23     0.3943   -0.2118    5.0322 N.am     1 ZINC000014191768   -0.6100
24     C24     1.1794    0.8961    5.5821 C.3      1 ZINC000014191768    0.1000
25     C25     0.6169    1.2907    6.9491 C.3      1 ZINC000014191768   -0.1900
26     C26     1.4033    2.4820    7.4996 C.3      1 ZINC000014191768   -0.0100
27     N27     0.9450    2.7837    8.8623 N.4      1 ZINC000014191768   -0.6400
28     H28     1.4050    3.6179    9.1949 H        1 ZINC000014191768    0.4400
29     H29    -0.0533    2.9296    8.8568 H        1 ZINC000014191768    0.4400
30     H30     1.1686    2.0108    9.4712 H        1 ZINC000014191768    0.4400
31     C31    -0.5515    0.0287    4.1027 C.2      1 ZINC000014191768    0.5700
32     O32    -1.3116   -0.8579    3.7655 O.2      1 ZINC000014191768   -0.4900
33     C33    -0.6646    1.3709    3.4932 C.ar     1 ZINC000014191768   -0.1400
34     C34    -0.7288    2.5055    4.3035 C.ar     1 ZINC000014191768   -0.1000
35     C35    -0.8338    3.7551    3.7284 C.ar     1 ZINC000014191768   -0.1300
36     C36    -0.8758    3.8850    2.3516 C.ar     1 ZINC000014191768   -0.0500
37     C37    -0.9910    5.2531    1.7303 C.3      1 ZINC000014191768   -0.1300
38     C38    -0.8121    2.7643    1.5426 C.ar     1 ZINC000014191768   -0.1200
39     C39    -0.7017    1.5094    2.1048 C.ar     1 ZINC000014191768   -0.0600
40     N40     2.5728   -1.7332    6.9389 N.2      1 ZINC000014191768   -0.4800
41     H41     7.6680   -1.6130    5.3774 H        1 ZINC000014191768    0.0900
42     H42     7.9988   -3.1573    6.1982 H        1 ZINC000014191768    0.0900
43     H43     6.8640   -3.1030    4.8280 H        1 ZINC000014191768    0.1000
44     H44     1.3884   -1.4947    3.3053 H        1 ZINC000014191768    0.1000
45     H45     3.0218   -1.5604    2.6010 H        1 ZINC000014191768    0.1200
46     H46     4.1185   -3.7680    2.2525 H        1 ZINC000014191768    0.1400
47     H47     3.7365   -6.1070    1.5846 H        1 ZINC000014191768    0.1300
48     H48     1.5065   -7.1159    1.8542 H        1 ZINC000014191768    0.1300
49     H49    -0.3412   -5.7860    2.7926 H        1 ZINC000014191768    0.1300
50     H50     0.0421   -3.4483    3.4649 H        1 ZINC000014191768    0.1200
51     H51     0.2312   -1.1160    7.5567 H        1 ZINC000014191768    0.0900
52     H52    -1.9658   -2.3233    5.8153 H        1 ZINC000014191768    0.0700
53     H53    -2.1547   -1.7892    7.5027 H        1 ZINC000014191768    0.0600
54     H54    -1.7975   -0.5999    6.2275 H        1 ZINC000014191768    0.0500
55     H55     1.2037   -3.3944    7.4478 H        1 ZINC000014191768    0.0600
56     H56    -0.4021   -3.4211    8.2153 H        1 ZINC000014191768    0.0700
57     H57    -0.2132   -3.9552    6.5279 H        1 ZINC000014191768    0.0600
58     H58     2.2184    0.5854    5.6927 H        1 ZINC000014191768    0.0800
59     H59     1.1255    1.7499    4.9067 H        1 ZINC000014191768    0.1100
60     H60    -0.4328    1.5653    6.8445 H        1 ZINC000014191768    0.1000
61     H61     0.7055    0.4485    7.6353 H        1 ZINC000014191768    0.1100
62     H62     2.4656    2.2384    7.5191 H        1 ZINC000014191768    0.1400
63     H63     1.2414    3.3505    6.8612 H        1 ZINC000014191768    0.1400
64     H64    -0.6968    2.4054    5.3784 H        1 ZINC000014191768    0.1200
65     H65    -0.8836    4.6338    4.3543 H        1 ZINC000014191768    0.1300
66     H66     0.0058    5.6583    1.5563 H        1 ZINC000014191768    0.0800
67     H67    -1.5232    5.1779    0.7820 H        1 ZINC000014191768    0.0800
68     H68    -1.5390    5.9127    2.4032 H        1 ZINC000014191768    0.0700
69     H69    -0.8450    2.8726    0.4685 H        1 ZINC000014191768    0.1400
70     H70    -0.6516    0.6354    1.4722 H        1 ZINC000014191768    0.1300
@<TRIPOS>BOND
1     1     2     1
2     1     41    1
3     1     42    1
4     1     43    1
5     2     6     1
6     2     3     2
7     3     4     1
8     4     5     1
9     5     40    1
10    5     6     2
11    6     7     1
12    7     8     2
13    7     9     am
14    9     10    1
15    9     17    1
16    10    11    1
17    10    44    1
18    10    45    1
19    11    16    ar
20    11    12    ar
21    12    13    ar
22    12    46    1
23    13    14    ar
24    13    47    1
25    14    15    ar
26    14    48    1
27    15    16    ar
28    15    49    1
29    16    50    1
30    17    18    1
31    17    40    2
32    18    19    1
33    18    20    1
34    18    23    1
35    20    21    1
36    20    22    1
37    20    51    1
38    21    52    1
39    21    53    1
40    21    54    1
41    22    55    1
42    22    56    1
43    22    57    1
44    23    24    1
45    23    31    am
46    24    25    1
47    24    58    1
48    24    59    1
49    25    26    1
50    25    60    1
51    25    61    1
52    26    27    1
53    26    62    1
54    26    63    1
55    27    28    1
56    27    29    1
57    27    30    1
58    31    32    2
59    31    33    1
60    33    39    ar
61    33    34    ar
62    34    35    ar
63    34    64    1
64    35    36    ar
65    35    65    1
66    36    37    1
67    36    38    ar
68    37    66    1
69    37    67    1
70    37    68    1
71    38    39    ar
72    38    69    1
73    39    70    1
@<TRIPOS>SUBSTRUCTURE
1   ZINC000014191768 1     RESIDUE    1   A     ZIN   1
