@<TRIPOS>MOLECULE
ZINC000043152787
62    65    1     0     0
SMALL
USER_CHARGES
@<TRIPOS>ATOM
1      O1      0.0021   -0.0041    0.0020 O.2      1 ZINC000043152787   -0.5200
2      C2     -0.0144    1.2086    0.0087 C.2      1 ZINC000043152787    0.5200
3      C3      1.2803    1.9798    0.0005 C.3      1 ZINC000043152787   -0.1000
4      C4      2.4389    1.0162   -0.0158 C.ar     1 ZINC000043152787    0.1500
5      C5      3.3972    1.1208   -1.0071 C.ar     1 ZINC000043152787   -0.1600
6      C6      4.4601    0.2336   -1.0179 C.ar     1 ZINC000043152787   -0.0600
7      C7      4.5211   -0.7397   -0.0171 C.ar     1 ZINC000043152787   -0.1100
8      C8      5.6385   -1.7151    0.0188 C.ar     1 ZINC000043152787   -0.0500
9      C9      6.6423   -1.6627   -0.9467 C.ar     1 ZINC000043152787   -0.0700
10     C10     7.6800   -2.5703   -0.9105 C.ar     1 ZINC000043152787   -0.1300
11     C11     7.7251   -3.5358    0.0861 C.ar     1 ZINC000043152787    0.1100
12     O12     8.7487   -4.4287    0.1192 O.3      1 ZINC000043152787   -0.3300
13     C13     8.7329   -5.3950    1.1719 C.3      1 ZINC000043152787    0.0200
14     C14     9.9550   -6.3068    1.0456 C.3      1 ZINC000043152787    0.0000
15     N15    11.1771   -5.5199    1.2588 N.4      1 ZINC000043152787   -0.3900
16     H16    11.1901   -4.7390    0.6200 H        1 ZINC000043152787    0.4300
17     C17    12.3534   -6.3676    1.0204 C.3      1 ZINC000043152787   -0.0400
18     C18    13.6253   -5.5455    1.2429 C.3      1 ZINC000043152787    0.0400
19     O19    13.6189   -5.0174    2.5721 O.3      1 ZINC000043152787   -0.3600
20     C20    12.4789   -4.2032    2.8607 C.3      1 ZINC000043152787    0.0400
21     C21    11.2048   -5.0227    2.6412 C.3      1 ZINC000043152787   -0.0500
22     C22     6.7266   -3.5904    1.0492 C.ar     1 ZINC000043152787   -0.2000
23     C23     5.6895   -2.6819    1.0214 C.ar     1 ZINC000043152787   -0.0700
24     C24     3.5155   -0.7792    0.9469 C.ar     1 ZINC000043152787    0.1200
25     N25     2.5258    0.0896    0.9191 N.ar     1 ZINC000043152787   -0.4500
26     N26    -1.1906    1.8666    0.0178 N.am     1 ZINC000043152787   -0.7300
27     C27    -2.4492    1.1169    0.0197 C.3      1 ZINC000043152787    0.1600
28     C28    -3.6079    2.0805    0.0305 C.ar     1 ZINC000043152787   -0.1100
29     C29    -4.1299    2.5203    1.2325 C.ar     1 ZINC000043152787   -0.1000
30     C30    -5.1927    3.4043    1.2424 C.ar     1 ZINC000043152787   -0.1200
31     C31    -5.7331    3.8487    0.0502 C.ar     1 ZINC000043152787   -0.1100
32     C32    -5.2105    3.4096   -1.1519 C.ar     1 ZINC000043152787   -0.1200
33     C33    -4.1449    2.5290   -1.1617 C.ar     1 ZINC000043152787   -0.1000
34     H34     1.3211    2.6120   -0.8866 H        1 ZINC000043152787    0.1100
35     H35     1.3381    2.6024    0.8933 H        1 ZINC000043152787    0.1200
36     H36     3.3172    1.8860   -1.7650 H        1 ZINC000043152787    0.1400
37     H37     5.2225    0.2922   -1.7805 H        1 ZINC000043152787    0.1400
38     H38     6.6074   -0.9123   -1.7227 H        1 ZINC000043152787    0.1400
39     H39     8.4581   -2.5302   -1.6584 H        1 ZINC000043152787    0.1400
40     H40     8.7585   -4.8842    2.1344 H        1 ZINC000043152787    0.0900
41     H41     7.8244   -5.9933    1.1022 H        1 ZINC000043152787    0.1100
42     H42     9.8970   -7.0977    1.7935 H        1 ZINC000043152787    0.1500
43     H43     9.9768   -6.7493    0.0497 H        1 ZINC000043152787    0.1500
44     H44    12.3399   -7.2107    1.7111 H        1 ZINC000043152787    0.1400
45     H45    12.3338   -6.7368   -0.0049 H        1 ZINC000043152787    0.1400
46     H46    14.4990   -6.1832    1.1088 H        1 ZINC000043152787    0.1400
47     H47    13.6588   -4.7255    0.5256 H        1 ZINC000043152787    0.0800
48     H48    12.5230   -3.8695    3.8974 H        1 ZINC000043152787    0.1400
49     H49    12.4731   -3.3372    2.1987 H        1 ZINC000043152787    0.0800
50     H50    10.3326   -4.3935    2.8190 H        1 ZINC000043152787    0.1400
51     H51    11.1916   -5.8663    3.3312 H        1 ZINC000043152787    0.1400
52     H52     6.7642   -4.3428    1.8230 H        1 ZINC000043152787    0.1300
53     H53     4.9131   -2.7248    1.7709 H        1 ZINC000043152787    0.1400
54     H54     3.5501   -1.5262    1.7260 H        1 ZINC000043152787    0.1600
55     H55    -1.2037    2.8365    0.0232 H        1 ZINC000043152787    0.4000
56     H56    -2.5027    0.4944   -0.8734 H        1 ZINC000043152787    0.0800
57     H57    -2.4943    0.4847    0.9065 H        1 ZINC000043152787    0.0800
58     H58    -3.7077    2.1731    2.1639 H        1 ZINC000043152787    0.1200
59     H59    -5.6010    3.7473    2.1815 H        1 ZINC000043152787    0.1300
60     H60    -6.5639    4.5387    0.0579 H        1 ZINC000043152787    0.1300
61     H61    -5.6329    3.7565   -2.0833 H        1 ZINC000043152787    0.1300
62     H62    -3.7366    2.1859   -2.1009 H        1 ZINC000043152787    0.1200
@<TRIPOS>BOND
1     1     2     2
2     2     3     1
3     2     26    am
4     3     4     1
5     3     34    1
6     3     35    1
7     4     25    ar
8     4     5     ar
9     5     6     ar
10    5     36    1
11    6     7     ar
12    6     37    1
13    7     8     1
14    7     24    ar
15    8     23    ar
16    8     9     ar
17    9     10    ar
18    9     38    1
19    10    11    ar
20    10    39    1
21    11    12    1
22    11    22    ar
23    12    13    1
24    13    14    1
25    13    40    1
26    13    41    1
27    14    15    1
28    14    42    1
29    14    43    1
30    15    16    1
31    15    21    1
32    15    17    1
33    17    18    1
34    17    44    1
35    17    45    1
36    18    19    1
37    18    46    1
38    18    47    1
39    19    20    1
40    20    21    1
41    20    48    1
42    20    49    1
43    21    50    1
44    21    51    1
45    22    23    ar
46    22    52    1
47    23    53    1
48    24    25    ar
49    24    54    1
50    26    27    1
51    26    55    1
52    27    28    1
53    27    56    1
54    27    57    1
55    28    33    ar
56    28    29    ar
57    29    30    ar
58    29    58    1
59    30    31    ar
60    30    59    1
61    31    32    ar
62    31    60    1
63    32    33    ar
64    32    61    1
65    33    62    1
@<TRIPOS>SUBSTRUCTURE
1   ZINC000043152787 1     RESIDUE    1   A     ZIN   1
