@<TRIPOS>MOLECULE
ZINC000053041008
  29   30    0    0    0
SMALL
USER_CHARGES
NO_NAME
@<TRIPOS>ATOM
    1 C1       -0.0173     1.4248     0.0099 C.3    1 <0>       0.0400
    2 O2        0.0021    -0.0041     0.0020 O.3    1 <0>      -0.2300
    3 N3       -1.2835    -0.5976     0.0111 N.2    1 <0>      -0.2800
    4 C4       -1.4013    -1.8863     0.0053 C.2    1 <0>       0.2300
    5 C5       -0.2316    -2.7122    -0.0103 C.1    1 <0>       0.2100
    6 N6        0.6964    -3.3673    -0.0227 N.1    1 <0>      -0.3700
    7 C7       -2.7695    -2.5179     0.0150 C.3    1 <0>      -0.0600
    8 H8       -2.8623    -3.2013    -0.8291 H      1 <0>       0.1100
    9 C9       -3.8392    -1.4269    -0.0881 C.3    1 <0>       0.0500
   10 N10      -4.7021    -1.4767     1.0998 N.3    1 <0>      -0.5200
   11 C11      -5.4051    -2.7640     1.1879 C.3    1 <0>       0.0500
   12 C12      -4.3803    -3.8934     1.3264 C.3    1 <0>      -0.1500
   13 C13      -2.9702    -3.2895     1.3254 C.3    1 <0>      -0.0800
   14 C14      -2.8608    -2.3000     2.4924 C.3    1 <0>      -0.1500
   15 C15      -3.9320    -1.2132     2.3232 C.3    1 <0>       0.0500
   16 H16       1.0053     1.8021     0.0021 H      1 <0>       0.1000
   17 H17      -0.5445     1.7859    -0.8732 H      1 <0>       0.0600
   18 H18      -0.5275     1.7763     0.9067 H      1 <0>       0.0600
   19 H19      -3.3582    -0.4505    -0.1474 H      1 <0>       0.1000
   20 H20      -4.4410    -1.5910    -0.9819 H      1 <0>       0.0900
   21 H21      -6.0624    -2.7607     2.0575 H      1 <0>       0.0800
   22 H22      -5.9964    -2.9181     0.2853 H      1 <0>       0.0800
   23 H23      -4.5486    -4.4265     2.2621 H      1 <0>       0.0700
   24 H24      -4.4809    -4.5827     0.4880 H      1 <0>       0.0700
   25 H25      -2.2243    -4.0790     1.4169 H      1 <0>       0.0800
   26 H26      -3.0236    -2.8257     3.4333 H      1 <0>       0.0700
   27 H27      -1.8708    -1.8441     2.4931 H      1 <0>       0.0600
   28 H28      -3.4515    -0.2380     2.2451 H      1 <0>       0.0800
   29 H29      -4.5989    -1.2225     3.1853 H      1 <0>       0.0800
@<TRIPOS>BOND
   1    1    2 1
   2    1   16 1
   3    1   17 1
   4    1   18 1
   5    2    3 1
   6    3    4 2
   7    4    5 1
   8    4    7 1
   9    5    6 3
  10    7    8 1
  11    7   13 1
  12    7    9 1
  13    9   10 1
  14    9   19 1
  15    9   20 1
  16   10   15 1
  17   10   11 1
  18   11   12 1
  19   11   21 1
  20   11   22 1
  21   12   13 1
  22   12   23 1
  23   12   24 1
  24   13   14 1
  25   13   25 1
  26   14   15 1
  27   14   26 1
  28   14   27 1
  29   15   28 1
  30   15   29 1
