@<TRIPOS>MOLECULE
ZINC000004642990
  19   18    0    0    0
SMALL
USER_CHARGES
NO_NAME
@<TRIPOS>ATOM
    1 N1        0.0175    -1.1399    -0.0042 N.1    1 <0>      -0.4000
    2 C2        0.0021    -0.0041     0.0020 C.1    1 <0>       0.1900
    3 C3       -0.0179     1.4678     0.0101 C.3    1 <0>      -0.0100
    4 C4        1.4175     1.9974    -0.0007 C.3    1 <0>      -0.1100
    5 C5        1.3967     3.5272     0.0077 C.3    1 <0>      -0.1600
    6 S6        3.0948     4.1537    -0.0052 S.3    1 <0>       0.1000
    7 C7        2.7813     5.8875     0.0071 C.cat  1 <0>       0.4800
    8 N8        1.5268     6.3379     0.0215 N.pl3  1 <0>      -0.7700
    9 N9        3.7987     6.7488     0.0020 N.pl3  1 <0>      -0.7400
   10 H10       4.7116     6.4211    -0.0084 H      1 <0>       0.4500
   11 H11       3.6261     7.7033     0.0088 H      1 <0>       0.4300
   12 H12      -0.5451     1.8289    -0.8729 H      1 <0>       0.1200
   13 H13      -0.5281     1.8193     0.9069 H      1 <0>       0.1200
   14 H14       1.9447     1.6363     0.8823 H      1 <0>       0.1000
   15 H15       1.9277     1.6458    -0.8975 H      1 <0>       0.1000
   16 H16       0.8696     3.8883    -0.8754 H      1 <0>       0.1200
   17 H17       0.8866     3.8787     0.9045 H      1 <0>       0.1200
   18 H18       0.7865     5.7112     0.0252 H      1 <0>       0.4400
   19 H19       1.3543     7.2924     0.0283 H      1 <0>       0.4300
@<TRIPOS>BOND
   1    1    2 3
   2    2    3 1
   3    3    4 1
   4    3   12 1
   5    3   13 1
   6    4    5 1
   7    4   14 1
   8    4   15 1
   9    5    6 1
  10    5   16 1
  11    5   17 1
  12    6    7 1
  13    7    8 ar
  14    7    9 ar
  15    8   18 1
  16    8   19 1
  17    9   10 1
  18    9   11 1
