@<TRIPOS>MOLECULE
ZINC000000600399
55    59    1     0     0
SMALL
USER_CHARGES
@<TRIPOS>ATOM
1      C1     -1.2835   -4.6047    3.4463 C.3      1 ZINC000000600399   -0.1300
2      C2     -0.8289   -3.9029    2.1926 C.ar     1 ZINC000000600399   -0.0200
3      C3     -0.7265   -4.6023    1.0080 C.ar     1 ZINC000000600399   -0.1000
4      C4     -0.3090   -3.9608   -0.1444 C.ar     1 ZINC000000600399   -0.1200
5      C5      0.0091   -2.6125   -0.1171 C.ar     1 ZINC000000600399    0.0900
6      F6      0.4161   -1.9925   -1.2463 F        1 ZINC000000600399   -0.1300
7      C7     -0.0900   -1.9009    1.0635 C.ar     1 ZINC000000600399   -0.1200
8      C8     -0.5162   -2.5427    2.2270 C.ar     1 ZINC000000600399   -0.1200
9      C9     -0.6250   -1.7882    3.4934 C.2      1 ZINC000000600399    0.5600
10     O10    -0.9807   -2.3534    4.5091 O.2      1 ZINC000000600399   -0.5000
11     N11    -0.3300   -0.4734    3.5219 N.am     1 ZINC000000600399   -0.6700
12     C12    -0.3307    0.2147    4.7337 C.ar     1 ZINC000000600399    0.1900
13     C13    -0.7935    1.5262    4.7869 C.ar     1 ZINC000000600399   -0.1400
14     C14    -0.7961    2.2096    5.9817 C.ar     1 ZINC000000600399   -0.0500
15     C15    -0.3334    1.5852    7.1435 C.ar     1 ZINC000000600399   -0.1400
16     C16    -0.3351    2.3144    8.4255 C.2      1 ZINC000000600399    0.5700
17     O17     0.6570    2.3100    9.1287 O.2      1 ZINC000000600399   -0.4900
18     N18    -1.4361    2.9854    8.8176 N.am     1 ZINC000000600399   -0.5600
19     C19    -1.3842    3.8018   10.0177 C.3      1 ZINC000000600399    0.1800
20     C20    -1.5933    5.2619    9.7057 C.2      1 ZINC000000600399    0.0100
21     C21    -1.3888    6.2445   10.6194 C.2      1 ZINC000000600399   -0.2000
22     C22    -1.7112    7.4667   10.0049 C.2      1 ZINC000000600399   -0.1800
23     C23    -2.0899    7.1915    8.7450 C.2      1 ZINC000000600399   -0.0300
24     N24    -1.9971    5.8328    8.5463 N.pl3    1 ZINC000000600399   -0.4300
25     C25    -2.2811    5.2188    7.2507 C.3      1 ZINC000000600399    0.1500
26     C26    -3.1055    3.9681    7.3709 C.ar     1 ZINC000000600399   -0.1200
27     C27    -4.3526    3.9002    6.7811 C.ar     1 ZINC000000600399   -0.0900
28     C28    -5.0834    2.7275    6.8430 C.ar     1 ZINC000000600399   -0.1100
29     C29    -4.5615    1.6222    7.4893 C.ar     1 ZINC000000600399   -0.0900
30     C30    -3.3255    1.6944    8.0989 C.ar     1 ZINC000000600399   -0.1100
31     C31    -2.5993    2.8884    8.0633 C.ar     1 ZINC000000600399    0.1500
32     C32     0.1310    0.2665    7.0872 C.ar     1 ZINC000000600399    0.0300
33     Cl33    0.7069   -0.5147    8.5266 Cl       1 ZINC000000600399   -0.0400
34     C34     0.1259   -0.4129    5.8882 C.ar     1 ZINC000000600399   -0.1200
35     H35    -2.3477   -4.4243    3.5982 H        1 ZINC000000600399    0.0800
36     H36    -1.1070   -5.6758    3.3475 H        1 ZINC000000600399    0.0600
37     H37    -0.7246   -4.2217    4.3001 H        1 ZINC000000600399    0.1000
38     H38    -0.9726   -5.6535    0.9802 H        1 ZINC000000600399    0.1400
39     H39    -0.2303   -4.5133   -1.0690 H        1 ZINC000000600399    0.1400
40     H40     0.1583   -0.8500    1.0847 H        1 ZINC000000600399    0.1400
41     H41    -0.1171   -0.0061    2.6990 H        1 ZINC000000600399    0.4200
42     H42    -1.1510    2.0086    3.8892 H        1 ZINC000000600399    0.1400
43     H43    -1.1549    3.2275    6.0213 H        1 ZINC000000600399    0.1400
44     H44    -2.1608    3.4706   10.7072 H        1 ZINC000000600399    0.0900
45     H45    -0.4112    3.6752   10.4924 H        1 ZINC000000600399    0.1200
46     H46    -1.0423    6.1115   11.6336 H        1 ZINC000000600399    0.1400
47     H47    -1.6636    8.4448   10.4603 H        1 ZINC000000600399    0.1400
48     H48    -2.4131    7.9153    8.0115 H        1 ZINC000000600399    0.1600
49     H49    -2.8187    5.9367    6.6312 H        1 ZINC000000600399    0.1000
50     H50    -1.3376    4.9732    6.7632 H        1 ZINC000000600399    0.0800
51     H51    -4.7570    4.7626    6.2721 H        1 ZINC000000600399    0.1300
52     H52    -6.0612    2.6754    6.3873 H        1 ZINC000000600399    0.1300
53     H53    -5.1228    0.6999    7.5174 H        1 ZINC000000600399    0.1300
54     H54    -2.9199    0.8286    8.6012 H        1 ZINC000000600399    0.1300
55     H55     0.4837   -1.4309    5.8433 H        1 ZINC000000600399    0.1500
@<TRIPOS>BOND
1     1     2     1
2     1     35    1
3     1     36    1
4     1     37    1
5     2     8     ar
6     2     3     ar
7     3     4     ar
8     3     38    1
9     4     5     ar
10    4     39    1
11    5     6     1
12    5     7     ar
13    7     8     ar
14    7     40    1
15    8     9     1
16    9     10    2
17    9     11    am
18    11    12    1
19    11    41    1
20    12    34    ar
21    12    13    ar
22    13    14    ar
23    13    42    1
24    14    15    ar
25    14    43    1
26    15    16    1
27    15    32    ar
28    16    17    2
29    16    18    am
30    18    31    1
31    18    19    1
32    19    20    1
33    19    44    1
34    19    45    1
35    20    24    1
36    20    21    2
37    21    22    1
38    21    46    1
39    22    23    2
40    22    47    1
41    23    24    1
42    23    48    1
43    24    25    1
44    25    26    1
45    25    49    1
46    25    50    1
47    26    31    ar
48    26    27    ar
49    27    28    ar
50    27    51    1
51    28    29    ar
52    28    52    1
53    29    30    ar
54    29    53    1
55    30    31    ar
56    30    54    1
57    32    33    1
58    32    34    ar
59    34    55    1
@<TRIPOS>SUBSTRUCTURE
1   ZINC000000600399 1     RESIDUE    1   A     ZIN   1
