@<TRIPOS>MOLECULE
ZINC000000600324
63    66    1     0     0
SMALL
USER_CHARGES
@<TRIPOS>ATOM
1      C1     -0.0173    1.4248    0.0099 C.3      1 ZINC000000600324    0.0200
2      O2      0.0021   -0.0041    0.0020 O.3      1 ZINC000000600324   -0.3100
3      C3      0.6263   -0.6188    1.0423 C.ar     1 ZINC000000600324    0.1500
4      C4      1.2013    0.1417    2.0495 C.ar     1 ZINC000000600324   -0.2100
5      C5      1.8369   -0.4808    3.1083 C.ar     1 ZINC000000600324   -0.0300
6      C6      1.8930   -1.8656    3.1521 C.ar     1 ZINC000000600324   -0.1500
7      S7      2.7009   -2.6839    4.4967 S.3      1 ZINC000000600324   -0.1200
8      C8      1.2996   -3.4897    5.3332 C.3      1 ZINC000000600324   -0.1300
9      C9      0.9665   -4.7946    4.6286 C.3      1 ZINC000000600324    0.1000
10     N10     0.4949   -4.6205    3.2619 N.am     1 ZINC000000600324   -0.5900
11     C11    -0.7874   -4.9098    2.9646 C.2      1 ZINC000000600324    0.5200
12     O12    -1.1935   -4.7694    1.8305 O.2      1 ZINC000000600324   -0.5200
13     C13    -1.7166   -5.4079    4.0415 C.3      1 ZINC000000600324   -0.1800
14     C14    -3.1023   -5.6588    3.4434 C.3      1 ZINC000000600324    0.0100
15     N15    -4.0081   -6.1443    4.4931 N.4      1 ZINC000000600324   -0.3800
16     H16    -3.6058   -6.9583    4.9330 H        1 ZINC000000600324    0.4200
17     C17    -5.3004   -6.5013    3.8956 C.3      1 ZINC000000600324    0.0000
18     C18    -6.2204   -7.0834    4.9708 C.3      1 ZINC000000600324   -0.1400
19     C19    -6.4356   -6.0396    6.0705 C.3      1 ZINC000000600324   -0.0900
20     C20    -7.2899   -6.6421    7.1877 C.3      1 ZINC000000600324   -0.0700
21     C21    -7.6036   -5.5793    8.2090 C.ar     1 ZINC000000600324   -0.1000
22     C22    -6.7518   -5.3755    9.2784 C.ar     1 ZINC000000600324   -0.1200
23     C23    -7.0395   -4.4005   10.2152 C.ar     1 ZINC000000600324   -0.1200
24     C24    -8.1789   -3.6291   10.0823 C.ar     1 ZINC000000600324   -0.1200
25     C25    -9.0303   -3.8324    9.0124 C.ar     1 ZINC000000600324   -0.1100
26     C26    -8.7403   -4.8044    8.0733 C.ar     1 ZINC000000600324   -0.1200
27     C27    -5.0756   -5.6198    6.6355 C.3      1 ZINC000000600324   -0.1400
28     C28    -4.1994   -5.0913    5.4977 C.3      1 ZINC000000600324   -0.0100
29     C29     1.3848   -4.1370    2.2034 C.3      1 ZINC000000600324    0.1500
30     C30     1.3200   -2.6266    2.1495 C.ar     1 ZINC000000600324   -0.0400
31     C31     0.6803   -2.0047    1.0943 C.ar     1 ZINC000000600324   -0.1300
32     H32     1.0053    1.8021    0.0021 H        1 ZINC000000600324    0.0600
33     H33    -0.5445    1.7859   -0.8732 H        1 ZINC000000600324    0.1100
34     H34    -0.5275    1.7763    0.9067 H        1 ZINC000000600324    0.0600
35     H35     1.1529    1.2197    2.0069 H        1 ZINC000000600324    0.1400
36     H36     2.2865    0.1071    3.8948 H        1 ZINC000000600324    0.1400
37     H37     1.5652   -3.6948    6.3702 H        1 ZINC000000600324    0.1300
38     H38     0.4321   -2.8304    5.3048 H        1 ZINC000000600324    0.0900
39     H39     1.8600   -5.4188    4.6116 H        1 ZINC000000600324    0.0900
40     H40     0.1953   -5.3116    5.1996 H        1 ZINC000000600324    0.0900
41     H41    -1.3265   -6.3370    4.4568 H        1 ZINC000000600324    0.1200
42     H42    -1.7916   -4.6602    4.8310 H        1 ZINC000000600324    0.1200
43     H43    -3.4925   -4.7296    3.0280 H        1 ZINC000000600324    0.1400
44     H44    -3.0273   -6.4065    2.6538 H        1 ZINC000000600324    0.1400
45     H45    -5.7606   -5.6107    3.4675 H        1 ZINC000000600324    0.1300
46     H46    -5.1452   -7.2418    3.1110 H        1 ZINC000000600324    0.1300
47     H47    -7.1799   -7.3462    4.5255 H        1 ZINC000000600324    0.1100
48     H48    -5.7611   -7.9742    5.3994 H        1 ZINC000000600324    0.0900
49     H49    -6.9424   -5.1696    5.6530 H        1 ZINC000000600324    0.0900
50     H50    -8.2188   -7.0275    6.7672 H        1 ZINC000000600324    0.0800
51     H51    -6.7427   -7.4548    7.6654 H        1 ZINC000000600324    0.0800
52     H52    -5.8616   -5.9781    9.3822 H        1 ZINC000000600324    0.1200
53     H53    -6.3744   -4.2417   11.0511 H        1 ZINC000000600324    0.1200
54     H54    -8.4041   -2.8679   10.8146 H        1 ZINC000000600324    0.1300
55     H55    -9.9206   -3.2299    8.9087 H        1 ZINC000000600324    0.1300
56     H56    -9.4054   -4.9632    7.2373 H        1 ZINC000000600324    0.1200
57     H57    -5.2169   -4.8365    7.3801 H        1 ZINC000000600324    0.1200
58     H58    -4.5926   -6.4803    7.0986 H        1 ZINC000000600324    0.0900
59     H59    -3.2300   -4.7910    5.8955 H        1 ZINC000000600324    0.1300
60     H60    -4.6840   -4.2309    5.0361 H        1 ZINC000000600324    0.1300
61     H61     2.4070   -4.4502    2.4158 H        1 ZINC000000600324    0.1100
62     H62     1.0685   -4.5493    1.2452 H        1 ZINC000000600324    0.1000
63     H63     0.2278   -2.5947    0.3110 H        1 ZINC000000600324    0.1400
@<TRIPOS>BOND
1     1     2     1
2     1     32    1
3     1     33    1
4     1     34    1
5     2     3     1
6     3     31    ar
7     3     4     ar
8     4     5     ar
9     4     35    1
10    5     6     ar
11    5     36    1
12    6     30    ar
13    6     7     1
14    7     8     1
15    8     9     1
16    8     37    1
17    8     38    1
18    9     10    1
19    9     39    1
20    9     40    1
21    10    11    am
22    10    29    1
23    11    12    2
24    11    13    1
25    13    14    1
26    13    41    1
27    13    42    1
28    14    15    1
29    14    43    1
30    14    44    1
31    15    16    1
32    15    28    1
33    15    17    1
34    17    18    1
35    17    45    1
36    17    46    1
37    18    19    1
38    18    47    1
39    18    48    1
40    19    20    1
41    19    27    1
42    19    49    1
43    20    21    1
44    20    50    1
45    20    51    1
46    21    26    ar
47    21    22    ar
48    22    23    ar
49    22    52    1
50    23    24    ar
51    23    53    1
52    24    25    ar
53    24    54    1
54    25    26    ar
55    25    55    1
56    26    56    1
57    27    28    1
58    27    57    1
59    27    58    1
60    28    59    1
61    28    60    1
62    29    30    1
63    29    61    1
64    29    62    1
65    30    31    ar
66    31    63    1
@<TRIPOS>SUBSTRUCTURE
1   ZINC000000600324 1     RESIDUE    1   A     ZIN   1
