@<TRIPOS>MOLECULE
ZINC000013983495
43    44    1     0     0
SMALL
USER_CHARGES
@<TRIPOS>ATOM
1      C1     -0.0178    1.4648    0.0101 C.3      1 ZINC000013983495    0.0200
2      N2      0.0021   -0.0041    0.0020 N.3      1 ZINC000013983495   -0.5400
3      C3      0.7859   -0.5261    1.1294 C.3      1 ZINC000013983495    0.0100
4      C4     -1.3620   -0.5491    0.0121 C.3      1 ZINC000013983495    0.0800
5      C5     -1.3118   -2.0335   -0.2431 C.ar     1 ZINC000013983495   -0.0100
6      C6     -1.3714   -2.5147   -1.5376 C.ar     1 ZINC000013983495   -0.1200
7      C7     -1.3253   -3.8763   -1.7717 C.ar     1 ZINC000013983495   -0.0100
8      C8     -1.2191   -4.7567   -0.7113 C.ar     1 ZINC000013983495   -0.6800
9      S9     -1.1609   -6.4923   -1.0096 S.o2     1 ZINC000013983495    2.6700
10     O10    -1.6034   -7.1200    0.1860 O.2      1 ZINC000013983495   -0.9200
11     O11    -1.7775   -6.7033   -2.2724 O.2      1 ZINC000013983495   -0.9200
12     N12     0.4324   -6.9051   -1.1924 N.am     1 ZINC000013983495   -0.8000
13     C13     1.1054   -6.9069   -2.3792 C.2      1 ZINC000013983495    0.0000
14     C14     2.3756   -7.2915   -2.1651 C.2      1 ZINC000013983495   -0.1400
15     C15     2.4941   -7.5480   -0.7246 C.2      1 ZINC000013983495   -0.1400
16     C16     3.6917   -7.9916   -0.0013 C.2      1 ZINC000013983495    0.0400
17     C17     4.8455   -8.2070   -0.6721 C.2      1 ZINC000013983495   -0.2300
18     C18     6.0017   -8.6353    0.0263 C.2      1 ZINC000013983495    0.5700
19     O19     5.9561   -8.8092    1.2305 O.2      1 ZINC000013983495   -0.5300
20     N20     7.1520   -8.8500   -0.6425 N.am     1 ZINC000013983495   -0.6000
21     O21     8.3074   -9.2780    0.0554 O.3      1 ZINC000013983495   -0.3200
22     C22     1.2501   -7.2816   -0.1887 C.2      1 ZINC000013983495    0.0500
23     C23    -1.1581   -4.2755    0.5832 C.ar     1 ZINC000013983495   -0.0200
24     C24    -1.2003   -2.9137    0.8170 C.ar     1 ZINC000013983495   -0.1300
25     H25     1.0047    1.8421    0.0024 H        1 ZINC000013983495    0.0700
26     H26    -0.5450    1.8259   -0.8730 H        1 ZINC000013983495    0.0700
27     H27    -0.5280    1.8163    0.9069 H        1 ZINC000013983495    0.0300
28     H28     0.3442   -0.1877    2.0667 H        1 ZINC000013983495    0.0300
29     H29     0.7843   -1.6157    1.0994 H        1 ZINC000013983495    0.0700
30     H30     1.8110   -0.1623    1.0586 H        1 ZINC000013983495    0.0700
31     H31    -1.8206   -0.3627    0.9832 H        1 ZINC000013983495    0.0500
32     H32    -1.9520   -0.0663   -0.7669 H        1 ZINC000013983495    0.0900
33     H33    -1.4544   -1.8268   -2.3661 H        1 ZINC000013983495    0.1400
34     H34    -1.3726   -4.2522   -2.7830 H        1 ZINC000013983495    0.1400
35     H35     0.6847   -6.6416   -3.3379 H        1 ZINC000013983495    0.1900
36     H36     3.1547   -7.3921   -2.9062 H        1 ZINC000013983495    0.1600
37     H37     3.6512   -8.1459    1.0669 H        1 ZINC000013983495    0.1400
38     H38     4.8860   -8.0527   -1.7402 H        1 ZINC000013983495    0.1300
39     H39     7.1884   -8.7114   -1.6018 H        1 ZINC000013983495    0.4100
40     H40     9.0827   -9.4052   -0.5083 H        1 ZINC000013983495    0.3900
41     H41     0.9776   -7.3659    0.8530 H        1 ZINC000013983495    0.1900
42     H42    -1.0747   -4.9633    1.4116 H        1 ZINC000013983495    0.1400
43     H43    -1.1527   -2.5377    1.8283 H        1 ZINC000013983495    0.1300
@<TRIPOS>BOND
1     1     2     1
2     1     25    1
3     1     26    1
4     1     27    1
5     2     3     1
6     2     4     1
7     3     28    1
8     3     29    1
9     3     30    1
10    4     5     1
11    4     31    1
12    4     32    1
13    5     24    ar
14    5     6     ar
15    6     7     ar
16    6     33    1
17    7     8     ar
18    7     34    1
19    8     9     1
20    8     23    ar
21    9     10    2
22    9     11    2
23    9     12    am
24    12    22    1
25    12    13    1
26    13    14    2
27    13    35    1
28    14    15    1
29    14    36    1
30    15    16    1
31    15    22    2
32    16    17    2
33    16    37    1
34    17    18    1
35    17    38    1
36    18    19    2
37    18    20    am
38    20    21    1
39    20    39    1
40    21    40    1
41    22    41    1
42    23    24    ar
43    23    42    1
44    24    43    1
@<TRIPOS>SUBSTRUCTURE
1   ZINC000013983495 1     RESIDUE    1   A     ZIN   1
