@<TRIPOS>MOLECULE
ZINC000034951302
53    58    1     0     0
SMALL
USER_CHARGES
@<TRIPOS>ATOM
1      S1      0.0281   -0.0035   -0.0035 S.2      1 ZINC000034951302   -0.6400
2      C2     -0.0211    1.7077    0.0114 C.2      1 ZINC000034951302    0.5700
3      N3      1.1262    2.4149    0.0083 N.am     1 ZINC000034951302   -0.6800
4      C4      2.4137    1.7225    0.1023 C.3      1 ZINC000034951302    0.1700
5      C5      3.5309    2.7336    0.0782 C.ar     1 ZINC000034951302   -0.1100
6      C6      4.0833    3.1222   -1.1277 C.ar     1 ZINC000034951302   -0.0800
7      C7      5.1086    4.0497   -1.1550 C.ar     1 ZINC000034951302   -0.1000
8      C8      5.5849    4.5915    0.0273 C.ar     1 ZINC000034951302    0.0500
9      O9      6.5686    5.5054    0.2727 O.3      1 ZINC000034951302   -0.3100
10     C10     6.3326    5.9736    1.6137 C.3      1 ZINC000034951302    0.2100
11     O11     5.6631    4.8685    2.2491 O.3      1 ZINC000034951302   -0.3100
12     C12     5.0280    4.1998    1.2427 C.ar     1 ZINC000034951302    0.0300
13     C13     3.9972    3.2749    1.2621 C.ar     1 ZINC000034951302   -0.0800
14     N14    -1.2072    2.3478    0.0207 N.am     1 ZINC000034951302   -0.5800
15     C15    -1.2752    3.8130   -0.0871 C.3      1 ZINC000034951302    0.1000
16     C16    -2.2614    4.1737   -1.2031 C.3      1 ZINC000034951302    0.0500
17     N17    -3.5469    3.5092   -0.9500 N.3      1 ZINC000034951302   -0.4700
18     C18    -4.5132    3.9383   -1.8470 C.ar     1 ZINC000034951302    0.3900
19     N19    -4.2176    4.8335   -2.7834 N.ar     1 ZINC000034951302   -0.5300
20     C20    -5.1273    5.2505   -3.6441 C.ar     1 ZINC000034951302    0.3100
21     N21    -6.3665    4.8069   -3.6221 N.ar     1 ZINC000034951302   -0.4900
22     C22    -6.7475    3.9089   -2.7171 C.ar     1 ZINC000034951302    0.1600
23     C23    -5.8173    3.4320   -1.7868 C.ar     1 ZINC000034951302   -0.0400
24     O24    -6.4287    2.5407   -0.9802 O.3      1 ZINC000034951302   -0.1800
25     C25    -7.7288    2.3853   -1.3130 C.ar     1 ZINC000034951302    0.1000
26     C26    -8.0093    3.2154   -2.4087 C.ar     1 ZINC000034951302   -0.1300
27     C27    -9.2899    3.2462   -2.9534 C.ar     1 ZINC000034951302   -0.0400
28     C28   -10.2825    2.4578   -2.4124 C.ar     1 ZINC000034951302   -0.1400
29     C29   -10.0077    1.6366   -1.3296 C.ar     1 ZINC000034951302   -0.0600
30     C30    -8.7426    1.5943   -0.7842 C.ar     1 ZINC000034951302   -0.1200
31     C31    -3.4072    2.0473   -0.9859 C.3      1 ZINC000034951302    0.0400
32     C32    -2.4682    1.5990    0.1328 C.3      1 ZINC000034951302    0.1100
33     H33     1.0994    3.3824   -0.0561 H        1 ZINC000034951302    0.4000
34     H34     2.4552    1.1574    1.0335 H        1 ZINC000034951302    0.1000
35     H35     2.5222    1.0410   -0.7414 H        1 ZINC000034951302    0.1000
36     H36     3.7137    2.7002   -2.0505 H        1 ZINC000034951302    0.1400
37     H37     5.5383    4.3515   -2.0988 H        1 ZINC000034951302    0.1400
38     H38     7.2759    6.1896    2.1155 H        1 ZINC000034951302    0.1400
39     H39     5.6920    6.8554    1.6044 H        1 ZINC000034951302    0.0900
40     H40     3.5597    2.9739    2.2025 H        1 ZINC000034951302    0.1400
41     H41    -1.6207    4.2340    0.8571 H        1 ZINC000034951302    0.1000
42     H42    -0.2886    4.2086   -0.3284 H        1 ZINC000034951302    0.0900
43     H43    -2.4081    5.2536   -1.2239 H        1 ZINC000034951302    0.1100
44     H44    -1.8630    3.8419   -2.1619 H        1 ZINC000034951302    0.0700
45     H45    -4.8461    5.9793   -4.3900 H        1 ZINC000034951302    0.2100
46     H46    -9.5050    3.8858   -3.7966 H        1 ZINC000034951302    0.1400
47     H47   -11.2771    2.4800   -2.8327 H        1 ZINC000034951302    0.1400
48     H48   -10.7914    1.0223   -0.9115 H        1 ZINC000034951302    0.1400
49     H49    -8.5402    0.9509    0.0592 H        1 ZINC000034951302    0.1400
50     H50    -4.3848    1.5851   -0.8492 H        1 ZINC000034951302    0.1100
51     H51    -2.9928    1.7451   -1.9477 H        1 ZINC000034951302    0.0600
52     H52    -2.2712    0.5310    0.0396 H        1 ZINC000034951302    0.1400
53     H53    -2.9257    1.8067    1.1001 H        1 ZINC000034951302    0.0900
@<TRIPOS>BOND
1     1     2     2
2     2     3     am
3     2     14    am
4     3     4     1
5     3     33    1
6     4     5     1
7     4     34    1
8     4     35    1
9     5     13    ar
10    5     6     ar
11    6     7     ar
12    6     36    1
13    7     8     ar
14    7     37    1
15    8     12    ar
16    8     9     1
17    9     10    1
18    10    11    1
19    10    38    1
20    10    39    1
21    11    12    1
22    12    13    ar
23    13    40    1
24    14    32    1
25    14    15    1
26    15    16    1
27    15    41    1
28    15    42    1
29    16    17    1
30    16    43    1
31    16    44    1
32    17    18    1
33    17    31    1
34    18    23    ar
35    18    19    ar
36    19    20    ar
37    20    21    ar
38    20    45    1
39    21    22    ar
40    22    26    1
41    22    23    ar
42    23    24    1
43    24    25    1
44    25    30    ar
45    25    26    ar
46    26    27    ar
47    27    28    ar
48    27    46    1
49    28    29    ar
50    28    47    1
51    29    30    ar
52    29    48    1
53    30    49    1
54    31    32    1
55    31    50    1
56    31    51    1
57    32    52    1
58    32    53    1
@<TRIPOS>SUBSTRUCTURE
1   ZINC000034951302 1     RESIDUE    1   A     ZIN   1
