@<TRIPOS>MOLECULE
ZINC000003814523
  42   43    0    0    0
SMALL
USER_CHARGES
NO_NAME
@<TRIPOS>ATOM
    1 C1        0.0339    -1.9156     0.8781 C.3    1 <0>      -0.1800
    2 C2       -1.2972    -1.1777     1.0351 C.3    1 <0>       0.0800
    3 C3       -1.4020    -0.6109     2.4524 C.3    1 <0>      -0.1500
    4 O4       -1.3640    -0.1092     0.0886 O.3    1 <0>      -0.2900
    5 C5       -1.9717    -0.3733    -1.0984 C.2    1 <0>       0.0100
    6 C6       -1.3691    -0.3533    -2.3087 C.2    1 <0>      -0.0900
    7 C7        0.0439    -0.0467    -2.5821 C.ar   1 <0>       0.0200
    8 C8        0.3901     1.1264    -3.2604 C.ar   1 <0>      -0.1200
    9 C9        1.7164     1.4066    -3.5128 C.ar   1 <0>      -0.0200
   10 C10       2.7038     0.5304    -3.0973 C.ar   1 <0>      -0.6500
   11 S11       4.3957     0.8973    -3.4252 S.o2   1 <0>       2.5000
   12 C12       4.9423     1.8442    -1.9777 C.3    1 <0>      -0.6500
   13 O13       5.0299    -0.3739    -3.4581 O.2    1 <0>      -0.9300
   14 O14       4.3573     1.7268    -4.5783 O.2    1 <0>      -0.9300
   15 C15       2.3693    -0.6323    -2.4251 C.ar   1 <0>      -0.0200
   16 C16       1.0480    -0.9239    -2.1600 C.ar   1 <0>      -0.1200
   17 C17      -2.4289    -0.7082    -3.3258 C.3    1 <0>       0.1400
   18 C18      -2.6139     0.4428    -4.3167 C.3    1 <0>      -0.1600
   19 C19      -2.0368    -1.9857    -4.0709 C.3    1 <0>      -0.1500
   20 O20      -3.6550    -0.9225    -2.5730 O.3    1 <0>      -0.3000
   21 C21      -3.3810    -0.7306    -1.2690 C.2    1 <0>       0.4800
   22 O22      -4.1882    -0.8318    -0.3653 O.2    1 <0>      -0.4400
   23 H23       0.1303    -2.6627     1.6658 H      1 <0>       0.0800
   24 H24       0.0644    -2.4070    -0.0944 H      1 <0>       0.0600
   25 H25       0.8553    -1.2028     0.9509 H      1 <0>       0.0700
   26 H26      -2.1198    -1.8709     0.8592 H      1 <0>       0.0700
   27 H27      -0.5794     0.0822     2.6283 H      1 <0>       0.0700
   28 H28      -2.3503    -0.0853     2.5643 H      1 <0>       0.0700
   29 H29      -1.3510    -1.4260     3.1743 H      1 <0>       0.0800
   30 H30      -0.3794     1.8107    -3.5859 H      1 <0>       0.1400
   31 H31       1.9853     2.3120    -4.0365 H      1 <0>       0.1500
   32 H32       4.8242     1.2367    -1.0804 H      1 <0>       0.1300
   33 H33       5.9910     2.1166    -2.0966 H      1 <0>       0.1300
   34 H34       4.3402     2.7482    -1.8864 H      1 <0>       0.1300
   35 H35       3.1456    -1.3109    -2.1037 H      1 <0>       0.1500
   36 H36       0.7885    -1.8314    -1.6351 H      1 <0>       0.1400
   37 H37      -1.6728     0.6329    -4.8327 H      1 <0>       0.0900
   38 H38      -3.3799     0.1759    -5.0448 H      1 <0>       0.0800
   39 H39      -2.9209     1.3397    -3.7786 H      1 <0>       0.0700
   40 H40      -1.9359    -2.8050    -3.3591 H      1 <0>       0.0700
   41 H41      -2.8078    -2.2316    -4.8011 H      1 <0>       0.0900
   42 H42      -1.0873    -1.8306    -4.5833 H      1 <0>       0.0900
@<TRIPOS>BOND
   1    1    2 1
   2    1   23 1
   3    1   24 1
   4    1   25 1
   5    2    3 1
   6    2    4 1
   7    2   26 1
   8    3   27 1
   9    3   28 1
  10    3   29 1
  11    4    5 1
  12    5   21 1
  13    5    6 2
  14    6    7 1
  15    6   17 1
  16    7   16 ar
  17    7    8 ar
  18    8    9 ar
  19    8   30 1
  20    9   10 ar
  21    9   31 1
  22   10   11 1
  23   10   15 ar
  24   11   12 1
  25   11   13 2
  26   11   14 2
  27   12   32 1
  28   12   33 1
  29   12   34 1
  30   15   16 ar
  31   15   35 1
  32   16   36 1
  33   17   18 1
  34   17   19 1
  35   17   20 1
  36   18   37 1
  37   18   38 1
  38   18   39 1
  39   19   40 1
  40   19   41 1
  41   19   42 1
  42   20   21 1
  43   21   22 2
