@<TRIPOS>MOLECULE
ZINC000043196550
43    45    1     0     0
SMALL
USER_CHARGES
@<TRIPOS>ATOM
1      C1     -0.5398    1.3496    0.8343 C.3      1 ZINC000043196550    0.0600
2      N2     -0.3888   -0.0904    0.6115 N.am     1 ZINC000043196550   -0.4900
3      C3     -0.1185   -0.5382   -0.6260 C.2      1 ZINC000043196550    0.5300
4      O4     -0.0046    0.2670   -1.5362 O.2      1 ZINC000043196550   -0.5000
5      C5      0.0367   -1.9012   -0.9011 C.2      1 ZINC000043196550   -0.0500
6      F6      0.3086   -2.3132   -2.1587 F        1 ZINC000043196550   -0.1000
7      C7     -0.0895   -2.8266    0.1231 C.2      1 ZINC000043196550    0.2700
8      N8      0.0587   -4.1800   -0.1171 N.pl3    1 ZINC000043196550   -0.6700
9      C9      1.1206   -4.8814    0.4642 C.ar     1 ZINC000043196550    0.2300
10     C10     2.0988   -4.1994    1.1744 C.ar     1 ZINC000043196550   -0.1500
11     C11     3.1465   -4.8946    1.7474 C.ar     1 ZINC000043196550   -0.0500
12     C12     3.2221   -6.2690    1.6145 C.ar     1 ZINC000043196550   -0.1200
13     I13     4.8130   -7.3174    2.4857 I        1 ZINC000043196550   -0.0300
14     C14     2.2490   -6.9535    0.9079 C.ar     1 ZINC000043196550   -0.0700
15     C15     1.1953   -6.2648    0.3365 C.ar     1 ZINC000043196550    0.0500
16     F16     0.2449   -6.9330   -0.3532 F        1 ZINC000043196550   -0.1300
17     C17    -0.3837   -2.3273    1.4649 C.2      1 ZINC000043196550   -0.3100
18     C18    -0.5207   -0.9470    1.6682 C.2      1 ZINC000043196550    0.4400
19     N19    -0.7909   -0.4938    2.9003 N.2      1 ZINC000043196550   -0.5500
20     C20    -0.9277   -1.3119    3.9079 C.2      1 ZINC000043196550    0.4300
21     N21    -0.8074   -2.6541    3.7772 N.am     1 ZINC000043196550   -0.5300
22     C22    -0.9731   -3.5183    4.9485 C.3      1 ZINC000043196550    0.0600
23     C23    -2.4435   -3.9192    5.0826 C.3      1 ZINC000043196550    0.0900
24     H24    -3.0631   -3.0229    5.1127 H        1 ZINC000043196550    0.1100
25     O25    -2.8222   -4.7228    3.9633 O.3      1 ZINC000043196550   -0.5400
26     C26    -2.6388   -4.7177    6.3730 C.3      1 ZINC000043196550    0.0500
27     O27    -4.0290   -4.9920    6.5577 O.3      1 ZINC000043196550   -0.5600
28     C28    -0.5300   -3.2006    2.5713 C.2      1 ZINC000043196550    0.5600
29     O29    -0.4189   -4.4066    2.4387 O.2      1 ZINC000043196550   -0.4800
30     H30     0.4302    1.7833    1.0774 H        1 ZINC000043196550    0.0800
31     H31    -0.9311    1.8180   -0.0688 H        1 ZINC000043196550    0.1000
32     H32    -1.2307    1.5190    1.6602 H        1 ZINC000043196550    0.1000
33     H33    -0.5735   -4.6432   -0.6886 H        1 ZINC000043196550    0.4200
34     H34     2.0414   -3.1260    1.2787 H        1 ZINC000043196550    0.1300
35     H35     3.9078   -4.3637    2.2997 H        1 ZINC000043196550    0.1300
36     H36     2.3108   -8.0269    0.8058 H        1 ZINC000043196550    0.1400
37     H37    -1.1448   -0.9025    4.8834 H        1 ZINC000043196550    0.2200
38     H38    -0.3620   -4.4130    4.8292 H        1 ZINC000043196550    0.1100
39     H39    -0.6598   -2.9811    5.8437 H        1 ZINC000043196550    0.1100
40     H40    -2.3110   -5.5387    3.8740 H        1 ZINC000043196550    0.3800
41     H41    -2.0889   -5.6565    6.3061 H        1 ZINC000043196550    0.0500
42     H42    -2.2673   -4.1385    7.2184 H        1 ZINC000043196550    0.0600
43     H43    -4.2273   -5.4966    7.3584 H        1 ZINC000043196550    0.3900
@<TRIPOS>BOND
1     1     2     1
2     1     30    1
3     1     31    1
4     1     32    1
5     2     18    1
6     2     3     am
7     3     4     2
8     3     5     1
9     5     6     1
10    5     7     2
11    7     8     1
12    7     17    1
13    8     9     1
14    8     33    1
15    9     15    ar
16    9     10    ar
17    10    11    ar
18    10    34    1
19    11    12    ar
20    11    35    1
21    12    13    1
22    12    14    ar
23    14    15    ar
24    14    36    1
25    15    16    1
26    17    28    1
27    17    18    2
28    18    19    1
29    19    20    2
30    20    21    1
31    20    37    1
32    21    22    1
33    21    28    am
34    22    23    1
35    22    38    1
36    22    39    1
37    23    24    1
38    23    25    1
39    23    26    1
40    25    40    1
41    26    27    1
42    26    41    1
43    26    42    1
44    27    43    1
45    28    29    2
@<TRIPOS>SUBSTRUCTURE
1   ZINC000043196550 1     RESIDUE    1   A     ZIN   1
