@<TRIPOS>MOLECULE
ZINC000100033051
  51   53    0    0    0
SMALL
USER_CHARGES
NO_NAME
@<TRIPOS>ATOM
    1 C1        0.1684     2.2547     0.4912 C.3    1 <0>      -0.1600
    2 C2        0.2035     0.8369     1.0654 C.3    1 <0>      -0.1300
    3 C3        0.8795    -0.1021     0.0643 C.3    1 <0>       0.2500
    4 H4        0.3708    -0.0352    -0.8973 H      1 <0>       0.1100
    5 N5        2.2831     0.2853    -0.0976 N.pl3  1 <0>      -0.6900
    6 C6        2.6244     1.2694    -0.9906 C.2    1 <0>       0.0200
    7 C7        3.8259     1.8687    -1.3947 C.2    1 <0>       0.0900
    8 N8        5.1378     1.6866    -1.0361 N.pl3  1 <0>      -0.5700
    9 C9        6.1253     2.5418    -1.5374 C.ar   1 <0>      -0.0300
   10 C10       5.8798     3.9028    -1.6354 C.ar   1 <0>      -0.0500
   11 C11       6.8529     4.7546    -2.1307 C.ar   1 <0>      -0.2400
   12 C12       8.0743     4.2588    -2.5315 C.ar   1 <0>      -0.0300
   13 C13       8.3381     2.8888    -2.4393 C.ar   1 <0>      -0.2900
   14 C14       9.6452     2.3552    -2.8678 C.2    1 <0>       0.5900
   15 O15      10.2476     1.5767    -2.1540 O.2    1 <0>      -0.5400
   16 N16      10.1715     2.7307    -4.0504 N.am   1 <0>      -0.6300
   17 C17      11.5165     2.2889    -4.4269 C.3    1 <0>       0.0900
   18 C18       9.3984     3.5807    -4.9593 C.3    1 <0>       0.0900
   19 C19       7.3585     2.0269    -1.9333 C.ar   1 <0>       0.3100
   20 O20       7.6040     0.6954    -1.8389 O.3    1 <0>      -0.6900
   21 C21       3.1538     2.7653    -2.3464 C.2    1 <0>       0.3500
   22 O22       3.4893     3.6338    -3.1297 O.2    1 <0>      -0.4000
   23 C23       1.8829     2.1282    -1.9251 C.2    1 <0>       0.3400
   24 O24       0.7114     2.2637    -2.2249 O.2    1 <0>      -0.4500
   25 C25       0.8049    -1.5182     0.5746 C.2    1 <0>      -0.0200
   26 C26      -0.0760    -2.4529     0.1751 C.2    1 <0>      -0.1900
   27 C27       0.2121    -3.6271     0.9080 C.2    1 <0>      -0.2100
   28 C28       1.2518    -3.3397     1.7115 C.2    1 <0>      -0.0100
   29 C29       1.9078    -4.2914     2.6785 C.3    1 <0>      -0.0700
   30 O30       1.6104    -2.0626     1.5011 O.3    1 <0>      -0.1700
   31 H31       1.1864     2.5959     0.3033 H      1 <0>       0.0600
   32 H32      -0.3930     2.2545    -0.4431 H      1 <0>       0.0800
   33 H33      -0.3132     2.9237     1.2043 H      1 <0>       0.0500
   34 H34       0.7649     0.8371     1.9997 H      1 <0>       0.0700
   35 H35      -0.8145     0.4957     1.2533 H      1 <0>       0.0700
   36 H36       2.9710    -0.1540     0.4265 H      1 <0>       0.4100
   37 H37       5.3806     0.9649    -0.4351 H      1 <0>       0.4100
   38 H38       4.9251     4.3005    -1.3243 H      1 <0>       0.1000
   39 H39       6.6531     5.8135    -2.2035 H      1 <0>       0.1000
   40 H40       8.8283     4.9288    -2.9174 H      1 <0>       0.1000
   41 H41      11.9315     1.6698    -3.6315 H      1 <0>       0.0800
   42 H42      11.4639     1.7093    -5.3485 H      1 <0>       0.0500
   43 H43      12.1549     3.1589    -4.5808 H      1 <0>       0.0500
   44 H44       9.6510     4.6261    -4.7822 H      1 <0>       0.0500
   45 H45       9.6352     3.3194    -5.9907 H      1 <0>       0.0600
   46 H46       8.3338     3.4289    -4.7814 H      1 <0>       0.0800
   47 H47      -0.8544    -2.3299    -0.5634 H      1 <0>       0.1500
   48 H48      -0.3039    -4.5732     0.8366 H      1 <0>       0.1500
   49 H49       2.7175    -4.8198     2.1754 H      1 <0>       0.0800
   50 H50       2.3089    -3.7317     3.5235 H      1 <0>       0.0800
   51 H51       1.1713    -5.0110     3.0361 H      1 <0>       0.0900
@<TRIPOS>BOND
   1    1    2 1
   2    1   31 1
   3    1   32 1
   4    1   33 1
   5    2    3 1
   6    2   34 1
   7    2   35 1
   8    3    4 1
   9    3    5 1
  10    3   25 1
  11    5    6 1
  12    5   36 1
  13    6   23 1
  14    6    7 2
  15    7    8 1
  16    7   21 1
  17    8    9 1
  18    8   37 1
  19    9   19 ar
  20    9   10 ar
  21   10   11 ar
  22   10   38 1
  23   11   12 ar
  24   11   39 1
  25   12   13 ar
  26   12   40 1
  27   13   14 1
  28   13   19 ar
  29   14   15 2
  30   14   16 am
  31   16   17 1
  32   16   18 1
  33   17   41 1
  34   17   42 1
  35   17   43 1
  36   18   44 1
  37   18   45 1
  38   18   46 1
  39   19   20 1
  40   21   22 2
  41   21   23 1
  42   23   24 2
  43   25   30 1
  44   25   26 2
  45   26   27 1
  46   26   47 1
  47   27   28 2
  48   27   48 1
  49   28   29 1
  50   28   30 1
  51   29   49 1
  52   29   50 1
  53   29   51 1
