@<TRIPOS>MOLECULE
ZINC000003796820
74    75    1     0     0
SMALL
USER_CHARGES
@<TRIPOS>ATOM
1      C1      0.4340   -0.1479    0.8549 C.3      1 ZINC000003796820   -0.1500
2      C2      0.4006   -1.6569    0.6041 C.3      1 ZINC000003796820   -0.1200
3      C3     -1.0520   -2.1364    0.5718 C.3      1 ZINC000003796820   -0.0800
4      C4     -1.0849   -3.6227    0.3248 C.ar     1 ZINC000003796820   -0.1100
5      C5     -1.1334   -4.1113   -0.9763 C.ar     1 ZINC000003796820   -0.0400
6      S6     -1.1562   -2.9892   -2.3345 S.3      1 ZINC000003796820   -0.0700
7      C7     -1.2194   -4.0917   -3.7737 C.3      1 ZINC000003796820   -0.1200
8      C8     -1.2448   -3.2564   -5.0553 C.3      1 ZINC000003796820   -0.1000
9      C9     -1.2981   -4.1862   -6.2691 C.3      1 ZINC000003796820    0.0600
10     O10    -1.3217   -3.4061   -7.4662 O.3      1 ZINC000003796820   -0.3000
11     C11    -1.3695   -4.0824   -8.6413 C.ar     1 ZINC000003796820    0.1700
12     C12    -1.3990   -5.4745   -8.6386 C.ar     1 ZINC000003796820   -0.2300
13     C13    -1.4467   -6.1665   -9.8137 C.ar     1 ZINC000003796820   -0.0300
14     C14    -1.4668   -5.4775  -11.0338 C.ar     1 ZINC000003796820   -0.2300
15     C15    -1.5185   -6.2181  -12.2967 C.2      1 ZINC000003796820    0.3800
16     C16    -1.4173   -7.7217  -12.2931 C.3      1 ZINC000003796820   -0.2000
17     O17    -1.6428   -5.6209  -13.3456 O.2      1 ZINC000003796820   -0.4300
18     C18    -1.4377   -4.0710  -11.0398 C.ar     1 ZINC000003796820    0.2100
19     O19    -1.4568   -3.3933  -12.2142 O.3      1 ZINC000003796820   -0.3200
20     C20    -0.1996   -3.1736  -12.8570 C.3      1 ZINC000003796820    0.0800
21     C21    -0.4307   -2.5100  -14.2161 C.3      1 ZINC000003796820   -0.0900
22     C22     0.9153   -2.2747  -14.9043 C.3      1 ZINC000003796820   -0.1800
23     C23     0.6877   -1.6211  -16.2429 C.2      1 ZINC000003796820    0.4900
24     O24    -0.4461   -1.3670  -16.6123 O.co2    1 ZINC000003796820   -0.6900
25     O25     1.6373   -1.3464  -16.9566 O.co2    1 ZINC000003796820   -0.7100
26     C26    -1.3946   -3.3831   -9.8398 C.ar     1 ZINC000003796820   -0.1500
27     C27    -1.3631   -1.8764   -9.8347 C.3      1 ZINC000003796820   -0.0700
28     C28    -2.7859   -1.3371   -9.6752 C.3      1 ZINC000003796820   -0.1100
29     C29    -2.7695    0.1882   -9.7943 C.3      1 ZINC000003796820   -0.1500
30     C30    -1.1637   -5.4871   -1.2108 C.ar     1 ZINC000003796820   -0.1600
31     C31    -1.1469   -6.3645   -0.1681 C.ar     1 ZINC000003796820   -0.0400
32     C32    -1.0990   -5.8887    1.1506 C.ar     1 ZINC000003796820   -0.2100
33     C33    -1.0815   -6.8297    2.2712 C.2      1 ZINC000003796820    0.3900
34     C34    -1.1149   -8.3134    2.0097 C.3      1 ZINC000003796820   -0.2000
35     O35    -1.0400   -6.4152    3.4110 O.2      1 ZINC000003796820   -0.4500
36     C36    -1.0613   -4.5023    1.3912 C.ar     1 ZINC000003796820    0.1900
37     O37    -1.0148   -4.0319    2.6623 O.3      1 ZINC000003796820   -0.4700
38     H38     1.4688    0.1937    0.8779 H        1 ZINC000003796820    0.0600
39     H39    -0.1003    0.3652    0.0554 H        1 ZINC000003796820    0.0600
40     H40    -0.0426    0.0723    1.8101 H        1 ZINC000003796820    0.0500
41     H41     0.8772   -1.8771   -0.3511 H        1 ZINC000003796820    0.0700
42     H42     0.9349   -2.1700    1.4037 H        1 ZINC000003796820    0.0600
43     H43    -1.5286   -1.9162    1.5270 H        1 ZINC000003796820    0.0800
44     H44    -1.5863   -1.6233   -0.2277 H        1 ZINC000003796820    0.0800
45     H45    -0.3400   -4.7356   -3.7770 H        1 ZINC000003796820    0.1000
46     H46    -2.1189   -4.7052   -3.7221 H        1 ZINC000003796820    0.0900
47     H47    -2.1242   -2.6124   -5.0520 H        1 ZINC000003796820    0.0900
48     H48    -0.3453   -2.6428   -5.1069 H        1 ZINC000003796820    0.0900
49     H49    -0.4187   -4.8302   -6.2724 H        1 ZINC000003796820    0.0700
50     H50    -2.1975   -4.7998   -6.2175 H        1 ZINC000003796820    0.0700
51     H51    -1.3836   -6.0098   -7.7007 H        1 ZINC000003796820    0.1300
52     H52    -1.4685   -7.2462   -9.8034 H        1 ZINC000003796820    0.1400
53     H53    -1.4015   -8.0823  -11.2647 H        1 ZINC000003796820    0.0800
54     H54    -2.2765   -8.1449  -12.8134 H        1 ZINC000003796820    0.0900
55     H55    -0.5007   -8.0253  -12.7988 H        1 ZINC000003796820    0.0900
56     H56     0.4175   -2.5243  -12.2359 H        1 ZINC000003796820    0.0500
57     H57     0.3070   -4.1280  -13.0001 H        1 ZINC000003796820    0.0500
58     H58    -1.0478   -3.1593  -14.8372 H        1 ZINC000003796820    0.0800
59     H59    -0.9373   -1.5555  -14.0729 H        1 ZINC000003796820    0.0700
60     H60     1.5324   -1.6254  -14.2832 H        1 ZINC000003796820    0.0600
61     H61     1.4219   -3.2291  -15.0474 H        1 ZINC000003796820    0.0600
62     H62    -0.7476   -1.5287   -9.0051 H        1 ZINC000003796820    0.0700
63     H63    -0.9421   -1.5187  -10.7744 H        1 ZINC000003796820    0.0800
64     H64    -3.4226   -1.7556  -10.4547 H        1 ZINC000003796820    0.0600
65     H65    -3.1746   -1.6210   -8.6973 H        1 ZINC000003796820    0.0600
66     H66    -2.1328    0.6066   -9.0148 H        1 ZINC000003796820    0.0500
67     H67    -2.3808    0.4721  -10.7723 H        1 ZINC000003796820    0.0600
68     H68    -3.7832    0.5724   -9.6807 H        1 ZINC000003796820    0.0500
69     H69    -1.2010   -5.8582   -2.2244 H        1 ZINC000003796820    0.1300
70     H70    -1.1709   -7.4275   -0.3574 H        1 ZINC000003796820    0.1400
71     H71    -0.0959   -8.6888    1.9157 H        1 ZINC000003796820    0.1000
72     H72    -1.6128   -8.8173    2.8382 H        1 ZINC000003796820    0.0900
73     H73    -1.6602   -8.5074    1.0860 H        1 ZINC000003796820    0.0800
74     H74    -0.1186   -3.9151    3.0060 H        1 ZINC000003796820    0.4000
@<TRIPOS>BOND
1     1     2     1
2     1     38    1
3     1     39    1
4     1     40    1
5     2     3     1
6     2     41    1
7     2     42    1
8     3     4     1
9     3     43    1
10    3     44    1
11    4     36    ar
12    4     5     ar
13    5     6     1
14    5     30    ar
15    6     7     1
16    7     8     1
17    7     45    1
18    7     46    1
19    8     9     1
20    8     47    1
21    8     48    1
22    9     10    1
23    9     49    1
24    9     50    1
25    10    11    1
26    11    26    ar
27    11    12    ar
28    12    13    ar
29    12    51    1
30    13    14    ar
31    13    52    1
32    14    15    1
33    14    18    ar
34    15    16    1
35    15    17    2
36    16    53    1
37    16    54    1
38    16    55    1
39    18    19    1
40    18    26    ar
41    19    20    1
42    20    21    1
43    20    56    1
44    20    57    1
45    21    22    1
46    21    58    1
47    21    59    1
48    22    23    1
49    22    60    1
50    22    61    1
51    23    24    ar
52    23    25    ar
53    26    27    1
54    27    28    1
55    27    62    1
56    27    63    1
57    28    29    1
58    28    64    1
59    28    65    1
60    29    66    1
61    29    67    1
62    29    68    1
63    30    31    ar
64    30    69    1
65    31    32    ar
66    31    70    1
67    32    33    1
68    32    36    ar
69    33    34    1
70    33    35    2
71    34    71    1
72    34    72    1
73    34    73    1
74    36    37    1
75    37    74    1
@<TRIPOS>SUBSTRUCTURE
1   ZINC000003796820 1     RESIDUE    1   A     ZIN   1
