@<TRIPOS>MOLECULE
ZINC000006716154
  60   63    0    0    0
SMALL
USER_CHARGES
NO_NAME
@<TRIPOS>ATOM
    1 C1       -0.0858     1.4257    -0.0221 C.3    1 <0>       0.0300
    2 O2       -0.0436    -0.0026    -0.0091 O.3    1 <0>      -0.3100
    3 C3       -1.2152    -0.6570    -0.2294 C.ar   1 <0>       0.1000
    4 C4       -2.3781     0.0599    -0.4588 C.ar   1 <0>      -0.1700
    5 C5       -3.5686    -0.6071    -0.6831 C.ar   1 <0>      -0.1100
    6 C6       -3.6016    -1.9888    -0.6788 C.ar   1 <0>      -0.0800
    7 C7       -4.9017    -2.7105    -0.9233 C.3    1 <0>      -0.0600
    8 H8       -4.7356    -3.7870    -0.8830 H      1 <0>       0.0900
    9 C9       -5.9205    -2.3083     0.1438 C.3    1 <0>       0.1200
   10 N10      -7.2438    -2.8152    -0.1973 N.am   1 <0>      -0.7200
   11 C11      -7.6043    -3.1997    -1.4223 C.2    1 <0>       0.5200
   12 O12      -8.7473    -3.5662    -1.5957 O.2    1 <0>      -0.5400
   13 C13      -6.6707    -3.2028    -2.5986 C.3    1 <0>      -0.1000
   14 H14      -7.1911    -2.8161    -3.4748 H      1 <0>       0.1100
   15 C15      -6.2054    -4.6340    -2.8744 C.3    1 <0>      -0.0700
   16 C16      -7.3838    -5.4727    -3.2974 C.ar   1 <0>      -0.0800
   17 C17      -8.1336    -6.1400    -2.3473 C.ar   1 <0>      -0.0900
   18 C18      -9.2148    -6.9095    -2.7353 C.ar   1 <0>      -0.1100
   19 C19      -9.5460    -7.0109    -4.0733 C.ar   1 <0>      -0.1200
   20 C20      -8.7966    -6.3426    -5.0236 C.ar   1 <0>      -0.0900
   21 C21      -9.1575    -6.4536    -6.4826 C.3    1 <0>      -0.1100
   22 C22      -7.7184    -5.5700    -4.6353 C.ar   1 <0>      -0.1100
   23 C23      -5.4521    -2.3262    -2.3020 C.3    1 <0>      -0.1100
   24 C24      -2.4442    -2.7104    -0.4509 C.ar   1 <0>      -0.1700
   25 C25      -1.2474    -2.0486    -0.2307 C.ar   1 <0>       0.1100
   26 O26      -0.1082    -2.7567    -0.0065 O.3    1 <0>      -0.2900
   27 C27      -0.2382    -4.1752     0.1085 C.3    1 <0>       0.0800
   28 C28      -0.1117    -4.8456    -1.2820 C.3    1 <0>      -0.1500
   29 C29       0.3318    -6.2867    -0.9275 C.3    1 <0>      -0.1200
   30 C30       1.2987    -6.1035     0.2605 C.3    1 <0>      -0.1200
   31 C31       0.9363    -4.7609     0.9192 C.3    1 <0>      -0.1200
   32 H32       0.9126     1.8205     0.1662 H      1 <0>       0.1000
   33 H33      -0.4350     1.7700    -0.9955 H      1 <0>       0.0600
   34 H34      -0.7673     1.7761     0.7531 H      1 <0>       0.0600
   35 H35      -2.3552     1.1396    -0.4620 H      1 <0>       0.1400
   36 H36      -4.4746    -0.0470    -0.8618 H      1 <0>       0.1300
   37 H37      -5.6148    -2.7182     1.1064 H      1 <0>       0.0800
   38 H38      -5.9582    -1.2212     0.2143 H      1 <0>       0.0700
   39 H39      -7.9034    -2.8769     0.5111 H      1 <0>       0.4000
   40 H40      -5.4603    -4.6269    -3.6699 H      1 <0>       0.0900
   41 H41      -5.7666    -5.0541    -1.9693 H      1 <0>       0.0700
   42 H42      -7.8748    -6.0608    -1.3017 H      1 <0>       0.1100
   43 H43      -9.8002    -7.4315    -1.9930 H      1 <0>       0.1200
   44 H44     -10.3902    -7.6125    -4.3765 H      1 <0>       0.1200
   45 H45      -9.8599    -5.6623    -6.7443 H      1 <0>       0.0700
   46 H46      -8.2567    -6.3548    -7.0882 H      1 <0>       0.0600
   47 H47      -9.6170    -7.4240    -6.6704 H      1 <0>       0.0700
   48 H48      -7.1329    -5.0479    -5.3777 H      1 <0>       0.1200
   49 H49      -5.7476    -1.2770    -2.2954 H      1 <0>       0.0800
   50 H50      -4.6894    -2.4882    -3.0637 H      1 <0>       0.0800
   51 H51      -2.4727    -3.7900    -0.4480 H      1 <0>       0.1400
   52 H52      -1.1894    -4.4337     0.5739 H      1 <0>       0.0800
   53 H53      -1.0728    -4.8527    -1.7962 H      1 <0>       0.0700
   54 H54       0.6464    -4.3453    -1.8846 H      1 <0>       0.0800
   55 H55      -0.5274    -6.8882    -0.6308 H      1 <0>       0.0700
   56 H56       0.8469    -6.7457    -1.7713 H      1 <0>       0.0700
   57 H57       1.1706    -6.9166     0.9750 H      1 <0>       0.0700
   58 H58       2.3283    -6.0783    -0.0965 H      1 <0>       0.0700
   59 H59       1.7900    -4.0842     0.8819 H      1 <0>       0.0800
   60 H60       0.6323    -4.9225     1.9534 H      1 <0>       0.0700
@<TRIPOS>BOND
   1    1    2 1
   2    1   32 1
   3    1   33 1
   4    1   34 1
   5    2    3 1
   6    3   25 ar
   7    3    4 ar
   8    4    5 ar
   9    4   35 1
  10    5    6 ar
  11    5   36 1
  12    6    7 1
  13    6   24 ar
  14    7    8 1
  15    7   23 1
  16    7    9 1
  17    9   10 1
  18    9   37 1
  19    9   38 1
  20   10   11 am
  21   10   39 1
  22   11   12 2
  23   11   13 1
  24   13   14 1
  25   13   15 1
  26   13   23 1
  27   15   16 1
  28   15   40 1
  29   15   41 1
  30   16   22 ar
  31   16   17 ar
  32   17   18 ar
  33   17   42 1
  34   18   19 ar
  35   18   43 1
  36   19   20 ar
  37   19   44 1
  38   20   21 1
  39   20   22 ar
  40   21   45 1
  41   21   46 1
  42   21   47 1
  43   22   48 1
  44   23   49 1
  45   23   50 1
  46   24   25 ar
  47   24   51 1
  48   25   26 1
  49   26   27 1
  50   27   31 1
  51   27   28 1
  52   27   52 1
  53   28   29 1
  54   28   53 1
  55   28   54 1
  56   29   30 1
  57   29   55 1
  58   29   56 1
  59   30   31 1
  60   30   57 1
  61   30   58 1
  62   31   59 1
  63   31   60 1
