@<TRIPOS>MOLECULE
ZINC000000000562
39    40    1     0     0
SMALL
USER_CHARGES
@<TRIPOS>ATOM
1      C1     -0.0173    1.4248    0.0099 C.3      1 ZINC000000000562    0.0200
2      O2      0.0021   -0.0041    0.0020 O.3      1 ZINC000000000562   -0.3000
3      C3     -1.2011   -0.6379    0.0101 C.ar     1 ZINC000000000562    0.1200
4      C4     -2.3739    0.0992    0.0195 C.ar     1 ZINC000000000562   -0.1700
5      C5     -3.5965   -0.5469    0.0272 C.ar     1 ZINC000000000562   -0.0700
6      C6     -4.8714    0.2566    0.0374 C.3      1 ZINC000000000562   -0.1200
7      C7     -3.6519   -1.9279    0.0251 C.ar     1 ZINC000000000562   -0.1000
8      C8     -4.9869   -2.6268    0.0331 C.3      1 ZINC000000000562   -0.0300
9      C9     -5.4991   -2.7476   -1.3790 C.ar     1 ZINC000000000562   -0.2200
10     C10    -6.3649   -1.8059   -1.8991 C.ar     1 ZINC000000000562    0.2000
11     N11    -6.7973   -1.9406   -3.1445 N.ar     1 ZINC000000000562   -0.5700
12     H12    -7.4053   -1.2810   -3.5135 H        1 ZINC000000000562    0.4400
13     C13    -6.4107   -2.9630   -3.8928 C.ar     1 ZINC000000000562    0.6600
14     N14    -6.8845   -3.0678   -5.1889 N.pl3    1 ZINC000000000562   -0.7900
15     N15    -5.5816   -3.8875   -3.4316 N.ar     1 ZINC000000000562   -0.5700
16     C16    -5.1044   -3.8116   -2.1935 C.ar     1 ZINC000000000562    0.5400
17     N17    -4.2371   -4.7795   -1.7140 N.pl3    1 ZINC000000000562   -0.7800
18     C18    -2.4848   -2.6697    0.0154 C.ar     1 ZINC000000000562   -0.1700
19     C19    -1.2569   -2.0287    0.0032 C.ar     1 ZINC000000000562    0.1100
20     O20    -0.1082   -2.7567   -0.0065 O.3      1 ZINC000000000562   -0.3000
21     C21    -0.2419   -4.1795   -0.0034 C.3      1 ZINC000000000562    0.0200
22     H22     1.0053    1.8021    0.0021 H        1 ZINC000000000562    0.1100
23     H23    -0.5445    1.7859   -0.8732 H        1 ZINC000000000562    0.0600
24     H24    -0.5275    1.7763    0.9067 H        1 ZINC000000000562    0.0600
25     H25    -2.3334    1.1784    0.0211 H        1 ZINC000000000562    0.1400
26     H26    -5.1861    0.4518   -0.9878 H        1 ZINC000000000562    0.0700
27     H27    -5.6497   -0.3033    0.5559 H        1 ZINC000000000562    0.0700
28     H28    -4.7006    1.2025    0.5514 H        1 ZINC000000000562    0.0800
29     H29    -4.8739   -3.6212    0.4649 H        1 ZINC000000000562    0.1000
30     H30    -5.6952   -2.0506    0.6284 H        1 ZINC000000000562    0.1100
31     H31    -6.6864   -0.9688   -1.2972 H        1 ZINC000000000562    0.2100
32     H32    -7.4919   -2.3974   -5.5389 H        1 ZINC000000000562    0.4300
33     H33    -6.6092   -3.8116   -5.7473 H        1 ZINC000000000562    0.4400
34     H34    -3.9739   -5.5197   -2.2830 H        1 ZINC000000000562    0.4300
35     H35    -3.8931   -4.7171   -0.8092 H        1 ZINC000000000562    0.4300
36     H36    -2.5308   -3.7487    0.0138 H        1 ZINC000000000562    0.1300
37     H37    -0.7792   -4.4920    0.8920 H        1 ZINC000000000562    0.0600
38     H38    -0.7956   -4.4943   -0.8879 H        1 ZINC000000000562    0.0500
39     H39     0.7473   -4.6373   -0.0119 H        1 ZINC000000000562    0.1100
@<TRIPOS>BOND
1     1     2     1
2     1     22    1
3     1     23    1
4     1     24    1
5     2     3     1
6     3     19    ar
7     3     4     ar
8     4     5     ar
9     4     25    1
10    5     6     1
11    5     7     ar
12    6     26    1
13    6     27    1
14    6     28    1
15    7     8     1
16    7     18    ar
17    8     9     1
18    8     29    1
19    8     30    1
20    9     16    ar
21    9     10    ar
22    10    11    ar
23    10    31    1
24    11    12    1
25    11    13    ar
26    13    14    1
27    13    15    ar
28    14    32    1
29    14    33    1
30    15    16    ar
31    16    17    1
32    17    34    1
33    17    35    1
34    18    19    ar
35    18    36    1
36    19    20    1
37    20    21    1
38    21    37    1
39    21    38    1
40    21    39    1
@<TRIPOS>SUBSTRUCTURE
1   ZINC000000000562 1     RESIDUE    1   A     ZIN   1
