@<TRIPOS>MOLECULE
ZINC000003791397
54    56    1     0     0
SMALL
USER_CHARGES
@<TRIPOS>ATOM
1      C1      3.8573   -2.7193   -8.1633 C.3      1 ZINC000003791397   -0.1500
2      C2      3.7814   -2.5962   -6.6401 C.3      1 ZINC000003791397   -0.1200
3      C3      2.6604   -3.4932   -6.1112 C.3      1 ZINC000003791397   -0.1200
4      C4      2.5845   -3.3701   -4.5880 C.3      1 ZINC000003791397    0.0400
5      N5      1.5083   -4.2313   -4.0802 N.3      1 ZINC000003791397   -0.5000
6      C6      0.1953   -3.8356   -4.6516 C.3      1 ZINC000003791397    0.0300
7      C7     -0.8464   -4.4145   -3.6703 C.3      1 ZINC000003791397   -0.1300
8      C8     -0.0964   -4.5616   -2.3303 C.3      1 ZINC000003791397   -0.1200
9      C9      1.3353   -4.0592   -2.6148 C.3      1 ZINC000003791397    0.0500
10     H10     1.4307   -3.0083   -2.3415 H        1 ZINC000003791397    0.0600
11     C11     2.3584   -4.9028   -1.8515 C.3      1 ZINC000003791397    0.1400
12     N12     2.1779   -4.7042   -0.4113 N.am     1 ZINC000003791397   -0.7300
13     C13     3.0344   -5.2733    0.4600 C.2      1 ZINC000003791397    0.5600
14     O14     3.9570   -5.9516    0.0506 O.2      1 ZINC000003791397   -0.5100
15     C15     2.8529   -5.0734    1.9091 C.ar     1 ZINC000003791397   -0.1800
16     C16     1.7829   -4.2946    2.3668 C.ar     1 ZINC000003791397   -0.0100
17     C17     1.5897   -4.0911    3.7234 C.ar     1 ZINC000003791397   -0.0400
18     C18     0.4943   -3.2946    4.1884 C.1      1 ZINC000003791397    0.2500
19     N19    -0.3747   -2.6627    4.5573 N.1      1 ZINC000003791397   -0.4000
20     C20     2.5195   -4.7014    4.6758 C.ar     1 ZINC000003791397    0.0200
21     C21     2.3645   -4.5244    6.0550 C.ar     1 ZINC000003791397   -0.1200
22     C22     3.2488   -5.1075    6.9145 C.ar     1 ZINC000003791397   -0.0800
23     C23     4.3060   -5.8775    6.4384 C.ar     1 ZINC000003791397   -0.1200
24     C24     4.4858   -6.0694    5.1014 C.ar     1 ZINC000003791397   -0.0800
25     C25     3.5931   -5.4841    4.1891 C.ar     1 ZINC000003791397   -0.0900
26     C26     3.7463   -5.6680    2.7992 C.ar     1 ZINC000003791397    0.2300
27     O27     4.7675   -6.4193    2.3275 O.3      1 ZINC000003791397   -0.3200
28     C28     4.5203   -7.8164    2.1572 C.3      1 ZINC000003791397    0.0500
29     H29     4.0623   -3.7550   -8.4343 H        1 ZINC000003791397    0.0600
30     H30     2.9079   -2.4104   -8.6005 H        1 ZINC000003791397    0.0500
31     H31     4.6559   -2.0803   -8.5401 H        1 ZINC000003791397    0.0500
32     H32     4.7308   -2.9051   -6.2028 H        1 ZINC000003791397    0.0600
33     H33     3.5764   -1.5605   -6.3691 H        1 ZINC000003791397    0.0600
34     H34     1.7110   -3.1843   -6.5484 H        1 ZINC000003791397    0.0600
35     H35     2.8654   -4.5289   -6.3822 H        1 ZINC000003791397    0.0700
36     H36     3.5340   -3.6790   -4.1508 H        1 ZINC000003791397    0.0800
37     H37     2.3795   -2.3344   -4.3170 H        1 ZINC000003791397    0.0400
38     H38     0.1123   -2.7497   -4.6971 H        1 ZINC000003791397    0.0500
39     H39     0.0658   -4.2695   -5.6431 H        1 ZINC000003791397    0.0900
40     H40    -1.6859   -3.7280   -3.5609 H        1 ZINC000003791397    0.0700
41     H41    -1.1945   -5.3871   -4.0181 H        1 ZINC000003791397    0.0700
42     H42    -0.5678   -3.9473   -1.5632 H        1 ZINC000003791397    0.0700
43     H43    -0.0764   -5.6065   -2.0204 H        1 ZINC000003791397    0.0800
44     H44     2.2144   -5.9557   -2.0939 H        1 ZINC000003791397    0.0800
45     H45     3.3654   -4.5987   -2.1368 H        1 ZINC000003791397    0.0700
46     H46     1.4421   -4.1631   -0.0847 H        1 ZINC000003791397    0.4000
47     H47     1.1029   -3.8486    1.6563 H        1 ZINC000003791397    0.1400
48     H48     1.5488   -3.9287    6.4373 H        1 ZINC000003791397    0.1300
49     H49     3.1272   -4.9696    7.9788 H        1 ZINC000003791397    0.1300
50     H50     4.9935   -6.3288    7.1383 H        1 ZINC000003791397    0.1300
51     H51     5.3103   -6.6691    4.7452 H        1 ZINC000003791397    0.1400
52     H52     3.7024   -7.9572    1.4506 H        1 ZINC000003791397    0.0500
53     H53     5.4188   -8.3003    1.7741 H        1 ZINC000003791397    0.1000
54     H54     4.2513   -8.2574    3.1170 H        1 ZINC000003791397    0.0500
@<TRIPOS>BOND
1     1     2     1
2     1     29    1
3     1     30    1
4     1     31    1
5     2     3     1
6     2     32    1
7     2     33    1
8     3     4     1
9     3     34    1
10    3     35    1
11    4     5     1
12    4     36    1
13    4     37    1
14    5     9     1
15    5     6     1
16    6     7     1
17    6     38    1
18    6     39    1
19    7     8     1
20    7     40    1
21    7     41    1
22    8     9     1
23    8     42    1
24    8     43    1
25    9     10    1
26    9     11    1
27    11    12    1
28    11    44    1
29    11    45    1
30    12    13    am
31    12    46    1
32    13    14    2
33    13    15    1
34    15    26    ar
35    15    16    ar
36    16    17    ar
37    16    47    1
38    17    18    1
39    17    20    ar
40    18    19    3
41    20    25    ar
42    20    21    ar
43    21    22    ar
44    21    48    1
45    22    23    ar
46    22    49    1
47    23    24    ar
48    23    50    1
49    24    25    ar
50    24    51    1
51    25    26    ar
52    26    27    1
53    27    28    1
54    28    52    1
55    28    53    1
56    28    54    1
@<TRIPOS>SUBSTRUCTURE
1   ZINC000003791397 1     RESIDUE    1   A     ZIN   1
