@<TRIPOS>MOLECULE
ZINC000003830976
87    93    1     0     0
SMALL
USER_CHARGES
@<TRIPOS>ATOM
1      C1     -0.8399    0.1081   -3.2883 C.3      1 ZINC000003830976   -0.1500
2      C2     -0.8271   -1.3895   -3.6012 C.3      1 ZINC000003830976   -0.1300
3      C3      0.0005   -1.6396   -4.8635 C.3      1 ZINC000003830976    0.1800
4      H4     -0.3867   -1.0285   -5.6789 H        1 ZINC000003830976    0.1100
5      C5     -0.0890   -3.1180   -5.2473 C.3      1 ZINC000003830976   -0.1600
6      N6      1.3989   -1.2850   -4.6089 N.am     1 ZINC000003830976   -0.4400
7      N7      2.2377   -1.8562   -3.6421 N.2      1 ZINC000003830976   -0.2600
8      C8      3.3949   -1.2822   -3.7226 C.2      1 ZINC000003830976    0.2500
9      N9      3.3528   -0.3383   -4.7214 N.am     1 ZINC000003830976   -0.5000
10     C10     4.4142    0.4932   -5.1119 C.ar     1 ZINC000003830976    0.1300
11     C11     4.2352    1.4117   -6.1373 C.ar     1 ZINC000003830976   -0.1100
12     C12     5.2788    2.2299   -6.5213 C.ar     1 ZINC000003830976   -0.1100
13     C13     6.5079    2.1341   -5.8815 C.ar     1 ZINC000003830976    0.1000
14     N14     7.5651    2.9631   -6.2699 N.3      1 ZINC000003830976   -0.4900
15     C15     7.8508    2.8154   -7.7039 C.3      1 ZINC000003830976    0.0600
16     C16     8.9571    3.7942   -8.1044 C.3      1 ZINC000003830976    0.0500
17     N17    10.1582    3.5273   -7.3008 N.3      1 ZINC000003830976   -0.4900
18     C18    11.2161    4.3569   -7.6894 C.ar     1 ZINC000003830976    0.0800
19     C19    11.0359    5.2801   -8.7109 C.ar     1 ZINC000003830976   -0.1300
20     C20    12.0803    6.0987   -9.0935 C.ar     1 ZINC000003830976   -0.1200
21     C21    13.3091    5.9986   -8.4581 C.ar     1 ZINC000003830976    0.1100
22     O22    14.3373    6.8048   -8.8358 O.3      1 ZINC000003830976   -0.3100
23     C23    15.5747    6.6478   -8.1386 C.3      1 ZINC000003830976    0.0700
24     C24    16.6037    7.6322   -8.6979 C.3      1 ZINC000003830976    0.0500
25     H25    16.2201    8.6521   -8.6706 H        1 ZINC000003830976    0.1000
26     C26    17.9470    7.5243   -7.9338 C.3      1 ZINC000003830976    0.0200
27     O27    18.9128    7.9698   -8.9073 O.3      1 ZINC000003830976   -0.3300
28     C28    18.3164    7.8136  -10.2016 C.3      1 ZINC000003830976    0.2900
29     C29    18.2226    9.1756  -10.8922 C.3      1 ZINC000003830976    0.1100
30     N30    19.5578    9.7725  -10.9781 N.pl3    1 ZINC000003830976   -0.3800
31     C31    20.1683   10.2247  -12.0871 C.2      1 ZINC000003830976    0.2400
32     N32    21.3454   10.6817  -11.7449 N.2      1 ZINC000003830976   -0.5400
33     C33    21.5214   10.5390  -10.4319 C.2      1 ZINC000003830976    0.1900
34     N34    20.4517    9.9915   -9.9173 N.2      1 ZINC000003830976   -0.2800
35     C35    19.1546    6.8796  -11.0360 C.ar     1 ZINC000003830976   -0.0900
36     C36    19.6209    7.2871  -12.2715 C.ar     1 ZINC000003830976   -0.0800
37     C37    20.3895    6.4307  -13.0377 C.ar     1 ZINC000003830976   -0.1000
38     C38    20.6926    5.1654  -12.5678 C.ar     1 ZINC000003830976   -0.0100
39     Cl39   21.6582    4.0903  -13.5298 Cl       1 ZINC000003830976   -0.0500
40     C40    20.2264    4.7570  -11.3308 C.ar     1 ZINC000003830976   -0.1100
41     C41    19.4619    5.6161  -10.5625 C.ar     1 ZINC000003830976    0.0100
42     Cl42   18.8770    5.1049   -9.0100 Cl       1 ZINC000003830976   -0.0400
43     O43    16.9980    7.2625  -10.0411 O.3      1 ZINC000003830976   -0.3400
44     C44    13.4899    5.0770   -7.4374 C.ar     1 ZINC000003830976   -0.1800
45     C45    12.4450    4.2612   -7.0500 C.ar     1 ZINC000003830976   -0.1000
46     C46     9.8726    3.6750   -5.8669 C.3      1 ZINC000003830976    0.0600
47     C47     8.7662    2.6962   -5.4664 C.3      1 ZINC000003830976    0.0500
48     C48     6.6866    1.2149   -4.8556 C.ar     1 ZINC000003830976   -0.1400
49     C49     5.6410    0.4007   -4.4686 C.ar     1 ZINC000003830976   -0.1100
50     C50     2.1194   -0.3520   -5.2655 C.2      1 ZINC000003830976    0.6500
51     O51     1.7255    0.3536   -6.1770 O.2      1 ZINC000003830976   -0.5400
52     H52     0.1810    0.4545   -3.1279 H        1 ZINC000003830976    0.0500
53     H53    -1.2804    0.6504   -4.1249 H        1 ZINC000003830976    0.0600
54     H54    -1.4295    0.2864   -2.3890 H        1 ZINC000003830976    0.0600
55     H55    -0.3866   -1.9317   -2.7646 H        1 ZINC000003830976    0.0800
56     H56    -1.8481   -1.7359   -3.7616 H        1 ZINC000003830976    0.0800
57     H57     0.5006   -3.2963   -6.1466 H        1 ZINC000003830976    0.0600
58     H58     0.2982   -3.7291   -4.4320 H        1 ZINC000003830976    0.0700
59     H59    -1.1294   -3.3819   -5.4368 H        1 ZINC000003830976    0.0800
60     H60     4.2527   -1.5074   -3.1062 H        1 ZINC000003830976    0.2300
61     H61     3.2796    1.4860   -6.6349 H        1 ZINC000003830976    0.1600
62     H62     5.1395    2.9442   -7.3193 H        1 ZINC000003830976    0.1300
63     H63     8.1769    1.7953   -7.9065 H        1 ZINC000003830976    0.0600
64     H64     6.9496    3.0303   -8.2782 H        1 ZINC000003830976    0.0900
65     H65     9.1908    3.6662   -9.1613 H        1 ZINC000003830976    0.0900
66     H66     8.6206    4.8157   -7.9271 H        1 ZINC000003830976    0.0600
67     H67    10.0793    5.3578   -9.2062 H        1 ZINC000003830976    0.1300
68     H68    11.9403    6.8169   -9.8879 H        1 ZINC000003830976    0.1300
69     H69    15.4217    6.8458   -7.0777 H        1 ZINC000003830976    0.0800
70     H70    15.9385    5.6286   -8.2691 H        1 ZINC000003830976    0.0800
71     H71    17.9481    8.1792   -7.0624 H        1 ZINC000003830976    0.1100
72     H72    18.1422    6.4924   -7.6417 H        1 ZINC000003830976    0.0900
73     H73    17.8168    9.0471  -11.8957 H        1 ZINC000003830976    0.1200
74     H74    17.5683    9.8304  -10.3168 H        1 ZINC000003830976    0.1100
75     H75    19.7588   10.2123  -13.0864 H        1 ZINC000003830976    0.2200
76     H76    22.4031   10.8321   -9.8813 H        1 ZINC000003830976    0.2200
77     H77    19.3845    8.2748  -12.6387 H        1 ZINC000003830976    0.1400
78     H78    20.7530    6.7495  -14.0034 H        1 ZINC000003830976    0.1500
79     H79    20.4628    3.7693  -10.9636 H        1 ZINC000003830976    0.1500
80     H80    14.4471    4.9996   -6.9432 H        1 ZINC000003830976    0.1300
81     H81    12.5859    3.5436   -6.2553 H        1 ZINC000003830976    0.1300
82     H82    10.7737    3.4601   -5.2925 H        1 ZINC000003830976    0.0900
83     H83     9.5464    4.6951   -5.6642 H        1 ZINC000003830976    0.0600
84     H84     8.5325    2.8242   -4.4094 H        1 ZINC000003830976    0.0900
85     H85     9.1028    1.6747   -5.6436 H        1 ZINC000003830976    0.0600
86     H86     7.6423    1.1398   -4.3582 H        1 ZINC000003830976    0.1400
87     H87     5.7799   -0.3140   -3.6709 H        1 ZINC000003830976    0.1300
@<TRIPOS>BOND
1     1     2     1
2     1     52    1
3     1     53    1
4     1     54    1
5     2     3     1
6     2     55    1
7     2     56    1
8     3     4     1
9     3     5     1
10    3     6     1
11    5     57    1
12    5     58    1
13    5     59    1
14    6     50    am
15    6     7     1
16    7     8     2
17    8     9     1
18    8     60    1
19    9     10    1
20    9     50    am
21    10    49    ar
22    10    11    ar
23    11    12    ar
24    11    61    1
25    12    13    ar
26    12    62    1
27    13    14    1
28    13    48    ar
29    14    47    1
30    14    15    1
31    15    16    1
32    15    63    1
33    15    64    1
34    16    17    1
35    16    65    1
36    16    66    1
37    17    18    1
38    17    46    1
39    18    45    ar
40    18    19    ar
41    19    20    ar
42    19    67    1
43    20    21    ar
44    20    68    1
45    21    22    1
46    21    44    ar
47    22    23    1
48    23    24    1
49    23    69    1
50    23    70    1
51    24    25    1
52    24    43    1
53    24    26    1
54    26    27    1
55    26    71    1
56    26    72    1
57    27    28    1
58    28    29    1
59    28    35    1
60    28    43    1
61    29    30    1
62    29    73    1
63    29    74    1
64    30    34    1
65    30    31    1
66    31    32    2
67    31    75    1
68    32    33    1
69    33    34    2
70    33    76    1
71    35    41    ar
72    35    36    ar
73    36    37    ar
74    36    77    1
75    37    38    ar
76    37    78    1
77    38    39    1
78    38    40    ar
79    40    41    ar
80    40    79    1
81    41    42    1
82    44    45    ar
83    44    80    1
84    45    81    1
85    46    47    1
86    46    82    1
87    46    83    1
88    47    84    1
89    47    85    1
90    48    49    ar
91    48    86    1
92    49    87    1
93    50    51    2
@<TRIPOS>SUBSTRUCTURE
1   ZINC000003830976 1     RESIDUE    1   A     ZIN   1
