@<TRIPOS>MOLECULE
ZINC000003831000
34    35    1     0     0
SMALL
USER_CHARGES
@<TRIPOS>ATOM
1      N1     -0.0116    1.0048    0.0076 N.4      1 ZINC000003831000   -0.6200
2      H2      0.0021   -0.0041    0.0020 H        1 ZINC000003831000    0.4300
3      H3      0.9350    1.3541    0.0004 H        1 ZINC000003831000    0.4100
4      H4     -0.4996    1.3391   -0.8099 H        1 ZINC000003831000    0.4300
5      C5     -0.6992    1.4786    1.2162 C.3      1 ZINC000003831000   -0.0500
6      H6     -0.7140    2.5685    1.2222 H        1 ZINC000003831000    0.1400
7      C7      0.0408    0.9717    2.4557 C.3      1 ZINC000003831000   -0.0800
8      C8      1.4136    1.5910    2.5094 C.ar     1 ZINC000003831000   -0.1200
9      C9      2.4792    0.9614    1.8930 C.ar     1 ZINC000003831000   -0.0800
10     C10     3.7392    1.5270    1.9406 C.ar     1 ZINC000003831000   -0.1200
11     I11     5.3531    0.5722    1.0063 I        1 ZINC000003831000    0.0000
12     C12     3.9344    2.7284    2.6076 C.ar     1 ZINC000003831000    0.1900
13     O13     5.1723    3.2871    2.6557 O.3      1 ZINC000003831000   -0.2600
14     C14     5.5222    4.1498    1.6647 C.ar     1 ZINC000003831000   -0.0300
15     C15     4.6236    4.4402    0.6488 C.ar     1 ZINC000003831000   -0.1100
16     C16     4.9789    5.3168   -0.3582 C.ar     1 ZINC000003831000   -0.2300
17     C17     6.2338    5.9069   -0.3532 C.ar     1 ZINC000003831000    0.2800
18     O18     6.5833    6.7697   -1.3445 O.3      1 ZINC000003831000   -0.7000
19     C19     7.1328    5.6172    0.6636 C.ar     1 ZINC000003831000   -0.2100
20     I20     9.0284    6.5092    0.6716 I        1 ZINC000003831000   -0.0800
21     C21     6.7759    4.7440    1.6729 C.ar     1 ZINC000003831000   -0.0300
22     C22     2.8629    3.3584    3.2251 C.ar     1 ZINC000003831000   -0.1100
23     I23     3.1518    5.1723    4.2326 I        1 ZINC000003831000    0.0000
24     C24     1.6041    2.7906    3.1701 C.ar     1 ZINC000003831000   -0.0500
25     C25    -2.1130    0.9570    1.2269 C.2      1 ZINC000003831000    0.4900
26     O26    -2.3735   -0.1091    0.6957 O.co2    1 ZINC000003831000   -0.6700
27     O27    -2.9963    1.6010    1.7667 O.co2    1 ZINC000003831000   -0.6400
28     H28    -0.5175    1.2476    3.3503 H        1 ZINC000003831000    0.1200
29     H29     0.1333   -0.1132    2.4053 H        1 ZINC000003831000    0.1000
30     H30     2.3267    0.0266    1.3741 H        1 ZINC000003831000    0.1400
31     H31     3.6462    3.9808    0.6447 H        1 ZINC000003831000    0.0900
32     H32     4.2794    5.5423   -1.1495 H        1 ZINC000003831000    0.1000
33     H33     7.4752    4.5187    2.4644 H        1 ZINC000003831000    0.1100
34     H34     0.7699    3.2804    3.6504 H        1 ZINC000003831000    0.1500
@<TRIPOS>BOND
1     1     2     1
2     1     3     1
3     1     4     1
4     1     5     1
5     5     6     1
6     5     7     1
7     5     25    1
8     7     8     1
9     7     28    1
10    7     29    1
11    8     24    ar
12    8     9     ar
13    9     10    ar
14    9     30    1
15    10    11    1
16    10    12    ar
17    12    13    1
18    12    22    ar
19    13    14    1
20    14    21    ar
21    14    15    ar
22    15    16    ar
23    15    31    1
24    16    17    ar
25    16    32    1
26    17    18    1
27    17    19    ar
28    19    20    1
29    19    21    ar
30    21    33    1
31    22    23    1
32    22    24    ar
33    24    34    1
34    25    26    ar
35    25    27    ar
@<TRIPOS>SUBSTRUCTURE
1   ZINC000003831000 1     RESIDUE    1   A     ZIN   1
