@<TRIPOS>MOLECULE
ZINC000096941867
  47   49    0    0    0
SMALL
USER_CHARGES
NO_NAME
@<TRIPOS>ATOM
    1 C1       -0.0106     1.5512     0.1035 C.3    1 <0>      -0.1500
    2 C2        0.0067     0.0383    -0.1242 C.3    1 <0>      -0.1400
    3 C3       -1.4194    -0.5080    -0.0303 C.3    1 <0>       0.1800
    4 C4       -1.3884    -2.0344    -0.1298 C.3    1 <0>      -0.1800
    5 N5       -2.0098    -0.1140     1.2512 N.pl3  1 <0>      -0.7100
    6 C6       -1.3731    -0.4417     2.4373 C.ar   1 <0>       0.4500
    7 C7       -0.2357    -1.2530     2.4301 C.ar   1 <0>      -0.3200
    8 C8        0.3680    -1.5544     3.6363 C.ar   1 <0>       0.1800
    9 N9       -0.1443    -1.0697     4.7567 N.ar   1 <0>      -0.5500
   10 C10      -1.2265    -0.3008     4.7351 C.ar   1 <0>       0.4500
   11 C11      -1.7667     0.2207     6.0090 C.2    1 <0>      -0.1300
   12 C12      -2.8605     1.0097     6.1653 C.2    1 <0>       0.1400
   13 N13      -3.0447     1.2853     7.4864 N.pl3  1 <0>      -0.5700
   14 C14      -2.0682     0.6798     8.2432 C.ar   1 <0>       0.2800
   15 N15      -1.8219     0.6502     9.5463 N.ar   1 <0>      -0.5000
   16 C16      -0.8002    -0.0155    10.0418 C.ar   1 <0>       0.1400
   17 C17       0.0707    -0.7199     9.2260 C.ar   1 <0>      -0.2000
   18 C18      -0.1360    -0.7254     7.8582 C.ar   1 <0>      -0.0200
   19 C19      -1.2281    -0.0185     7.3573 C.ar   1 <0>      -0.1100
   20 N20      -1.8321     0.0155     3.5970 N.ar   1 <0>      -0.5800
   21 C21      -2.2471     0.0522    -1.1582 C.2    1 <0>       0.5300
   22 O22      -1.7089     0.4189    -2.1813 O.2    1 <0>      -0.5000
   23 N23      -3.5855     0.1457    -1.0299 N.am   1 <0>      -0.7300
   24 C24      -4.3902     0.6903    -2.1263 C.3    1 <0>       0.0800
   25 C25      -5.8669     0.6858    -1.7261 C.3    1 <0>       0.4500
   26 F26      -6.0427     1.4730    -0.5831 F      1 <0>      -0.1800
   27 F27      -6.6354     1.2059    -2.7732 F      1 <0>      -0.1700
   28 F28      -6.2730    -0.6255    -1.4563 F      1 <0>      -0.1800
   29 H29       1.0053     1.9403     0.0367 H      1 <0>       0.0600
   30 H30      -0.6322     2.0258    -0.6557 H      1 <0>       0.0600
   31 H31      -0.4174     1.7652     1.0919 H      1 <0>       0.0500
   32 H32       0.4135    -0.1757    -1.1125 H      1 <0>       0.0900
   33 H33       0.6283    -0.4363     0.6351 H      1 <0>       0.0900
   34 H34      -0.9377    -2.4482     0.7723 H      1 <0>       0.0900
   35 H35      -2.4054    -2.4124    -0.2342 H      1 <0>       0.0700
   36 H36      -0.7999    -2.3300    -0.9984 H      1 <0>       0.0800
   37 H37      -2.8466     0.3763     1.2694 H      1 <0>       0.4000
   38 H38       0.1628    -1.6365     1.5025 H      1 <0>       0.1600
   39 H39       1.2484    -2.1793     3.6646 H      1 <0>       0.1700
   40 H40      -3.4897     1.3655     5.3628 H      1 <0>       0.1900
   41 H41      -3.7625     1.8315     7.8432 H      1 <0>       0.4300
   42 H42      -0.6366    -0.0124    11.1094 H      1 <0>       0.1600
   43 H43       0.9030    -1.2591     9.6538 H      1 <0>       0.1400
   44 H44       0.5266    -1.2655     7.1981 H      1 <0>       0.1500
   45 H45      -4.0160    -0.1476    -0.2116 H      1 <0>       0.4100
   46 H46      -4.0738     1.7120    -2.3365 H      1 <0>       0.1200
   47 H47      -4.2532     0.0770    -3.0169 H      1 <0>       0.1200
@<TRIPOS>BOND
   1    1    2 1
   2    1   29 1
   3    1   30 1
   4    1   31 1
   5    2    3 1
   6    2   32 1
   7    2   33 1
   8    3    4 1
   9    3    5 1
  10    3   21 1
  11    4   34 1
  12    4   35 1
  13    4   36 1
  14    5    6 1
  15    5   37 1
  16    6   20 ar
  17    6    7 ar
  18    7    8 ar
  19    7   38 1
  20    8    9 ar
  21    8   39 1
  22    9   10 ar
  23   10   11 1
  24   10   20 ar
  25   11   19 1
  26   11   12 2
  27   12   13 1
  28   12   40 1
  29   13   14 1
  30   13   41 1
  31   14   19 ar
  32   14   15 ar
  33   15   16 ar
  34   16   17 ar
  35   16   42 1
  36   17   18 ar
  37   17   43 1
  38   18   19 ar
  39   18   44 1
  40   21   22 2
  41   21   23 am
  42   23   24 1
  43   23   45 1
  44   24   25 1
  45   24   46 1
  46   24   47 1
  47   25   26 1
  48   25   27 1
  49   25   28 1
