@<TRIPOS>MOLECULE
ZINC000000895074
  13   12    0    0    0
SMALL
USER_CHARGES
NO_NAME
@<TRIPOS>ATOM
    1 O1        0.0021    -0.0041     0.0020 O.co2  1 <0>      -0.6900
    2 C2       -0.0145     1.2150     0.0087 C.2    1 <0>       0.5000
    3 O3        1.0330     1.8389     0.0021 O.co2  1 <0>      -0.7300
    4 C4       -1.3296     1.9507     0.0190 C.3    1 <0>      -0.2000
    5 C5       -2.4790     0.9408     0.0189 C.3    1 <0>       0.0700
    6 H6       -2.3588     0.2536     0.8564 H      1 <0>       0.0800
    7 O7       -2.4667     0.2053    -1.2062 O.3    1 <0>      -0.5500
    8 C8       -3.7900     1.6717     0.1529 C.2    1 <0>       0.4700
    9 O9       -4.5982     1.6463    -0.7596 O.co2  1 <0>      -0.7100
   10 O10      -4.0425     2.2885     1.1739 O.co2  1 <0>      -0.7100
   11 H11      -1.3917     2.5717     0.9126 H      1 <0>       0.0600
   12 H12      -1.4001     2.5813    -0.8673 H      1 <0>       0.0500
   13 H13      -2.5693     0.7543    -1.9956 H      1 <0>       0.3500
@<TRIPOS>BOND
   1    1    2 ar
   2    2    3 ar
   3    2    4 1
   4    4    5 1
   5    4   11 1
   6    4   12 1
   7    5    6 1
   8    5    7 1
   9    5    8 1
  10    7   13 1
  11    8    9 ar
  12    8   10 ar
