@<TRIPOS>MOLECULE
ZINC000043207055
33    34    1     0     0
SMALL
USER_CHARGES
@<TRIPOS>ATOM
1      C1     -0.0025    1.1511   -0.2550 C.3      1 ZINC000043207055   -0.1400
2      C2     -0.1001   -0.3643   -0.0684 C.3      1 ZINC000043207055   -0.0800
3      C3      0.6560   -0.7675    1.1713 C.ar     1 ZINC000043207055   -0.0800
4      C4      1.9684   -1.1904    1.0719 C.ar     1 ZINC000043207055   -0.2300
5      C5      2.6652   -1.5615    2.2104 C.ar     1 ZINC000043207055    0.2700
6      O6      3.9568   -1.9773    2.1132 O.3      1 ZINC000043207055   -0.7100
7      C7      2.0421   -1.5078    3.4536 C.ar     1 ZINC000043207055   -0.0200
8      O8      2.7230   -1.8707    4.5730 O.3      1 ZINC000043207055   -0.2400
9      C9      2.0444   -1.9069    5.7480 C.ar     1 ZINC000043207055    0.1100
10     C10     2.0590   -0.8028    6.5910 C.ar     1 ZINC000043207055   -0.1200
11     C11     1.3713   -0.8350    7.7842 C.ar     1 ZINC000043207055   -0.0500
12     C12     0.6579   -1.9798    8.1474 C.ar     1 ZINC000043207055   -0.1300
13     C13    -0.0803   -2.0171    9.4249 C.2      1 ZINC000043207055    0.5700
14     N14    -0.7681   -3.1224    9.7738 N.am     1 ZINC000043207055   -0.8500
15     O15    -0.0679   -1.0507   10.1627 O.2      1 ZINC000043207055   -0.5400
16     C16     0.6444   -3.0897    7.2978 C.ar     1 ZINC000043207055   -0.1100
17     C17     1.3305   -3.0485    6.1029 C.ar     1 ZINC000043207055    0.0800
18     F18     1.3183   -4.1200    5.2801 F        1 ZINC000043207055   -0.1200
19     C19     0.7261   -1.0831    3.5484 C.ar     1 ZINC000043207055   -0.1700
20     C20     0.0367   -0.7082    2.4083 C.ar     1 ZINC000043207055   -0.0300
21     F21    -1.2460   -0.2943    2.5012 F        1 ZINC000043207055   -0.1700
22     H22     1.0440    1.4378   -0.3584 H        1 ZINC000043207055    0.0600
23     H23    -0.5494    1.4427   -1.1517 H        1 ZINC000043207055    0.0500
24     H24    -0.4326    1.6524    0.6120 H        1 ZINC000043207055    0.0500
25     H25    -1.1467   -0.6510    0.0350 H        1 ZINC000043207055    0.0600
26     H26     0.3299   -0.8657   -0.9354 H        1 ZINC000043207055    0.0700
27     H27     2.4505   -1.2319    0.1064 H        1 ZINC000043207055    0.1100
28     H28     2.6108    0.0823    6.3105 H        1 ZINC000043207055    0.1500
29     H29     1.3840    0.0241    8.4386 H        1 ZINC000043207055    0.1500
30     H30    -0.7780   -3.8934    9.1852 H        1 ZINC000043207055    0.4000
31     H31    -1.2532   -3.1469   10.6134 H        1 ZINC000043207055    0.4100
32     H32     0.0939   -3.9766    7.5752 H        1 ZINC000043207055    0.1400
33     H33     0.2402   -1.0409    4.5120 H        1 ZINC000043207055    0.1100
@<TRIPOS>BOND
1     1     2     1
2     1     22    1
3     1     23    1
4     1     24    1
5     2     3     1
6     2     25    1
7     2     26    1
8     3     20    ar
9     3     4     ar
10    4     5     ar
11    4     27    1
12    5     6     1
13    5     7     ar
14    7     8     1
15    7     19    ar
16    8     9     1
17    9     17    ar
18    9     10    ar
19    10    11    ar
20    10    28    1
21    11    12    ar
22    11    29    1
23    12    13    1
24    12    16    ar
25    13    14    am
26    13    15    2
27    14    30    1
28    14    31    1
29    16    17    ar
30    16    32    1
31    17    18    1
32    19    20    ar
33    19    33    1
34    20    21    1
@<TRIPOS>SUBSTRUCTURE
1   ZINC000043207055 1     RESIDUE    1   A     ZIN   1
