@<TRIPOS>MOLECULE
ZINC000008674217
69    73    1     0     0
SMALL
USER_CHARGES
@<TRIPOS>ATOM
1      C1     -0.0512    1.4456   -0.3199 C.3      1 ZINC000008674217    0.0100
2      N2     -0.0316    0.0046   -0.0351 N.3      1 ZINC000008674217   -0.5200
3      C3      0.6913   -0.2756    1.2127 C.3      1 ZINC000008674217    0.0200
4      C4     -1.3945   -0.5413    0.0122 C.3      1 ZINC000008674217    0.0700
5      H5     -1.9481   -0.1857   -0.8568 H        1 ZINC000008674217    0.1100
6      C6     -2.0716   -0.0508    1.2536 C.2      1 ZINC000008674217    0.3200
7      O7     -1.8164    1.1972    1.6735 O.3      1 ZINC000008674217   -0.6200
8      C8     -2.9428   -0.8233    1.9806 C.2      1 ZINC000008674217   -0.5100
9      C9     -3.6022   -0.2706    3.1745 C.2      1 ZINC000008674217    0.6000
10     O10    -3.4410    0.8977    3.4723 O.2      1 ZINC000008674217   -0.5600
11     N11    -4.3848   -1.0589    3.9378 N.am     1 ZINC000008674217   -0.7400
12     C12    -4.9663   -0.5348    5.1761 C.3      1 ZINC000008674217    0.2800
13     N13    -6.3243   -0.0424    4.9093 N.3      1 ZINC000008674217   -0.5300
14     C14    -7.3228   -1.1333    5.0473 C.3      1 ZINC000008674217    0.0400
15     C15    -8.6542   -0.3703    5.2610 C.3      1 ZINC000008674217   -0.1200
16     C16    -8.2283    0.8294    6.1381 C.3      1 ZINC000008674217   -0.1300
17     C17    -6.7165    0.9901    5.8931 C.3      1 ZINC000008674217    0.0400
18     C18    -3.2122   -2.2013    1.5618 C.2      1 ZINC000008674217    0.4100
19     O19    -3.8347   -2.9556    2.2806 O.2      1 ZINC000008674217   -0.5400
20     C20    -2.7035   -2.6630    0.2247 C.3      1 ZINC000008674217    0.0700
21     O21    -2.5708   -4.0851    0.2707 O.3      1 ZINC000008674217   -0.5500
22     C22    -3.6521   -2.3397   -0.8807 C.2      1 ZINC000008674217    0.3900
23     O23    -4.8429   -2.4894   -0.6855 O.2      1 ZINC000008674217   -0.5000
24     C24    -3.2365   -1.8740   -2.1255 C.2      1 ZINC000008674217   -0.4700
25     C25    -4.1859   -1.5671   -3.0823 C.2      1 ZINC000008674217    0.3300
26     O26    -5.5017   -1.6387   -2.7853 O.3      1 ZINC000008674217   -0.6000
27     C27    -3.7489   -1.1615   -4.4270 C.ar     1 ZINC000008674217   -0.0900
28     C28    -4.6427   -0.5458   -5.3133 C.ar     1 ZINC000008674217    0.1400
29     O29    -5.9294   -0.3257   -4.9436 O.3      1 ZINC000008674217   -0.4700
30     C30    -4.2018   -0.1625   -6.5717 C.ar     1 ZINC000008674217   -0.1700
31     C31    -2.8911   -0.3863   -6.9448 C.ar     1 ZINC000008674217   -0.1100
32     C32    -2.0057   -0.9991   -6.0717 C.ar     1 ZINC000008674217   -0.1400
33     C33    -2.4274   -1.3920   -4.8215 C.ar     1 ZINC000008674217   -0.0700
34     C34    -1.4788   -2.0869   -3.8790 C.3      1 ZINC000008674217    0.1800
35     C35    -1.6478   -3.6017   -4.0118 C.3      1 ZINC000008674217   -0.1600
36     O36    -0.1350   -1.7280   -4.2067 O.3      1 ZINC000008674217   -0.5500
37     C37    -1.7799   -1.6664   -2.4428 C.3      1 ZINC000008674217    0.0200
38     H38    -1.5526   -0.6063   -2.3304 H        1 ZINC000008674217    0.0600
39     C39    -0.9097   -2.4651   -1.4708 C.3      1 ZINC000008674217   -0.0900
40     C40    -1.3198   -2.0692   -0.0375 C.3      1 ZINC000008674217   -0.0400
41     H41    -0.5922   -2.4405    0.6842 H        1 ZINC000008674217    0.0700
42     H42     0.9650    1.7929   -0.5065 H        1 ZINC000008674217    0.0400
43     H43    -0.6668    1.6337   -1.1995 H        1 ZINC000008674217    0.0500
44     H44    -0.4663    1.9793    0.5351 H        1 ZINC000008674217    0.0800
45     H45     0.2008    0.2375    2.0398 H        1 ZINC000008674217    0.0500
46     H46     0.6907   -1.3495    1.3996 H        1 ZINC000008674217    0.0600
47     H47     1.7189    0.0772    1.1243 H        1 ZINC000008674217    0.0500
48     H48    -4.5630   -1.9732    3.6673 H        1 ZINC000008674217    0.4000
49     H49    -5.0076   -1.3283    5.9223 H        1 ZINC000008674217    0.0400
50     H50    -4.3499    0.2831    5.5492 H        1 ZINC000008674217    0.0800
51     H51    -7.3649   -1.7335    4.1385 H        1 ZINC000008674217    0.0800
52     H52    -7.0940   -1.7572    5.9114 H        1 ZINC000008674217    0.0400
53     H53    -9.0594   -0.0274    4.3089 H        1 ZINC000008674217    0.0700
54     H54    -9.3768   -0.9949    5.7863 H        1 ZINC000008674217    0.0600
55     H55    -8.7593    1.7303    5.8306 H        1 ZINC000008674217    0.0700
56     H56    -8.4206    0.6164    7.1896 H        1 ZINC000008674217    0.0600
57     H57    -6.1714    0.8410    6.8251 H        1 ZINC000008674217    0.0400
58     H58    -6.5086    1.9824    5.4928 H        1 ZINC000008674217    0.0800
59     H59    -3.3980   -4.5516    0.4531 H        1 ZINC000008674217    0.3700
60     H60    -6.0750    0.5293   -4.5160 H        1 ZINC000008674217    0.3800
61     H61    -4.8850    0.3114   -7.2609 H        1 ZINC000008674217    0.1200
62     H62    -2.5534   -0.0818   -7.9244 H        1 ZINC000008674217    0.1200
63     H63    -0.9827   -1.1691   -6.3732 H        1 ZINC000008674217    0.1200
64     H64    -1.4288   -3.9033   -5.0360 H        1 ZINC000008674217    0.0400
65     H65    -0.9620   -4.1050   -3.3303 H        1 ZINC000008674217    0.0700
66     H66    -2.6731   -3.8760   -3.7636 H        1 ZINC000008674217    0.0700
67     H67     0.1283   -1.9683   -5.1056 H        1 ZINC000008674217    0.3600
68     H68    -1.0734   -3.5324   -1.6200 H        1 ZINC000008674217    0.0600
69     H69     0.1411   -2.2256   -1.6334 H        1 ZINC000008674217    0.0700
@<TRIPOS>BOND
1     1     2     1
2     1     42    1
3     1     43    1
4     1     44    1
5     2     3     1
6     2     4     1
7     3     45    1
8     3     46    1
9     3     47    1
10    4     5     1
11    4     40    1
12    4     6     1
13    6     7     1
14    6     8     2
15    8     9     1
16    8     18    1
17    9     10    2
18    9     11    am
19    11    12    1
20    11    48    1
21    12    13    1
22    12    49    1
23    12    50    1
24    13    17    1
25    13    14    1
26    14    15    1
27    14    51    1
28    14    52    1
29    15    16    1
30    15    53    1
31    15    54    1
32    16    17    1
33    16    55    1
34    16    56    1
35    17    57    1
36    17    58    1
37    18    19    2
38    18    20    1
39    20    40    1
40    20    21    1
41    20    22    1
42    21    59    1
43    22    23    2
44    22    24    1
45    24    37    1
46    24    25    2
47    25    26    1
48    25    27    1
49    27    33    ar
50    27    28    ar
51    28    29    1
52    28    30    ar
53    29    60    1
54    30    31    ar
55    30    61    1
56    31    32    ar
57    31    62    1
58    32    33    ar
59    32    63    1
60    33    34    1
61    34    35    1
62    34    36    1
63    34    37    1
64    35    64    1
65    35    65    1
66    35    66    1
67    36    67    1
68    37    38    1
69    37    39    1
70    39    40    1
71    39    68    1
72    39    69    1
73    40    41    1
@<TRIPOS>SUBSTRUCTURE
1   ZINC000008674217 1     RESIDUE    1   A     ZIN   1
