@<TRIPOS>MOLECULE
ZINC000003828536
64    67    1     0     0
SMALL
USER_CHARGES
@<TRIPOS>ATOM
1      C1     -0.3136    1.2133   -1.6972 C.3      1 ZINC000003828536   -0.1700
2      C2     -0.6420   -0.1157   -2.3804 C.3      1 ZINC000003828536    0.1400
3      C3      0.2975   -1.2040   -1.8572 C.3      1 ZINC000003828536   -0.1600
4      N4     -2.0290   -0.4857   -2.0875 N.am     1 ZINC000003828536   -0.7300
5      C5     -3.0311    0.0031   -2.8447 C.2      1 ZINC000003828536    0.5100
6      O6     -2.7847    0.7491   -3.7686 O.2      1 ZINC000003828536   -0.5300
7      C7     -4.4578   -0.3775   -2.5434 C.3      1 ZINC000003828536   -0.1600
8      C8     -5.3906    0.3080   -3.5437 C.3      1 ZINC000003828536   -0.0300
9      H9     -5.0806    0.0610   -4.5591 H        1 ZINC000003828536    0.0900
10     C10    -6.8215   -0.1704   -3.3170 C.3      1 ZINC000003828536   -0.1100
11     C11    -7.0886   -0.4244   -1.8397 C.3      1 ZINC000003828536   -0.1500
12     C12    -7.1284    0.8351   -1.0069 C.3      1 ZINC000003828536    0.1200
13     N13    -5.8123    1.4934   -1.0067 N.am     1 ZINC000003828536   -0.5700
14     C14    -4.9331    1.2877   -0.0061 C.2      1 ZINC000003828536    0.5700
15     O15    -5.1716    0.4599    0.8524 O.2      1 ZINC000003828536   -0.5100
16     C16    -3.6824    2.0662    0.0478 C.ar     1 ZINC000003828536   -0.1700
17     C17    -3.1445    2.6100   -1.1226 C.ar     1 ZINC000003828536   -0.0500
18     C18    -1.9770    3.3360   -1.0690 C.ar     1 ZINC000003828536   -0.1600
19     C19    -1.3304    3.5300    0.1488 C.ar     1 ZINC000003828536    0.1500
20     N20    -0.1509    4.2648    0.1985 N.3      1 ZINC000003828536   -0.4600
21     C21    -0.0907    5.2505   -0.9110 C.3      1 ZINC000003828536    0.0300
22     C22     0.9528    6.2818   -0.4128 C.3      1 ZINC000003828536   -0.1300
23     C23     0.6570    6.3686    1.1021 C.3      1 ZINC000003828536   -0.1300
24     C24    -0.0714    5.0561    1.4455 C.3      1 ZINC000003828536    0.0300
25     C25    -1.8619    2.9907    1.3165 C.ar     1 ZINC000003828536   -0.1700
26     C26    -3.0335    2.2675    1.2715 C.ar     1 ZINC000003828536    0.0400
27     Cl27   -3.6965    1.5948    2.7281 Cl       1 ZINC000003828536   -0.0400
28     C28    -5.5014    2.3390   -2.0773 C.ar     1 ZINC000003828536    0.1300
29     C29    -5.3693    3.7066   -1.8739 C.ar     1 ZINC000003828536   -0.1200
30     C30    -5.0909    4.5335   -2.9457 C.ar     1 ZINC000003828536   -0.1100
31     C31    -4.9476    4.0038   -4.2148 C.ar     1 ZINC000003828536   -0.1200
32     C32    -5.0688    2.6394   -4.4165 C.ar     1 ZINC000003828536   -0.0800
33     C33    -5.3293    1.8116   -3.3462 C.ar     1 ZINC000003828536   -0.0700
34     H34     0.7183    1.4886   -1.9152 H        1 ZINC000003828536    0.0600
35     H35    -0.9829    1.9887   -2.0700 H        1 ZINC000003828536    0.0800
36     H36    -0.4421    1.1096   -0.6198 H        1 ZINC000003828536    0.0500
37     H37    -0.5135   -0.0119   -3.4578 H        1 ZINC000003828536    0.0900
38     H38     0.1689   -1.3077   -0.7798 H        1 ZINC000003828536    0.0600
39     H39     0.0635   -2.1508   -2.3439 H        1 ZINC000003828536    0.0600
40     H40     1.3294   -0.9287   -2.0751 H        1 ZINC000003828536    0.0700
41     H41    -2.2260   -1.0824   -1.3486 H        1 ZINC000003828536    0.4000
42     H42    -4.5701   -1.4587   -2.6238 H        1 ZINC000003828536    0.1000
43     H43    -4.7127   -0.0600   -1.5323 H        1 ZINC000003828536    0.1100
44     H44    -7.5140    0.5890   -3.6800 H        1 ZINC000003828536    0.0700
45     H45    -6.9819   -1.0941   -3.8731 H        1 ZINC000003828536    0.0700
46     H46    -8.0452   -0.9376   -1.7415 H        1 ZINC000003828536    0.0800
47     H47    -6.3055   -1.0751   -1.4506 H        1 ZINC000003828536    0.0700
48     H48    -7.8722    1.5167   -1.4196 H        1 ZINC000003828536    0.0800
49     H49    -7.4047    0.5817    0.0166 H        1 ZINC000003828536    0.0900
50     H50    -3.6448    2.4600   -2.0679 H        1 ZINC000003828536    0.1600
51     H51    -1.5612    3.7559   -1.9730 H        1 ZINC000003828536    0.1300
52     H52     0.2482    4.7741   -1.8310 H        1 ZINC000003828536    0.0900
53     H53    -1.0611    5.7250   -1.0571 H        1 ZINC000003828536    0.0600
54     H54     1.9662    5.9205   -0.5879 H        1 ZINC000003828536    0.0800
55     H55     0.7987    7.2486   -0.8919 H        1 ZINC000003828536    0.0800
56     H56     1.5871    6.4437    1.6655 H        1 ZINC000003828536    0.0800
57     H57     0.0154    7.2240    1.3139 H        1 ZINC000003828536    0.0700
58     H58    -1.0747    5.2732    1.8121 H        1 ZINC000003828536    0.0600
59     H59     0.4912    4.5054    2.1994 H        1 ZINC000003828536    0.0900
60     H60    -1.3576    3.1428    2.2593 H        1 ZINC000003828536    0.1400
61     H61    -5.4839    4.1217   -0.8835 H        1 ZINC000003828536    0.1200
62     H62    -4.9853    5.5972   -2.7914 H        1 ZINC000003828536    0.1300
63     H63    -4.7410    4.6558   -5.0506 H        1 ZINC000003828536    0.1300
64     H64    -4.9585    2.2255   -5.4079 H        1 ZINC000003828536    0.1300
@<TRIPOS>BOND
1     1     2     1
2     1     34    1
3     1     35    1
4     1     36    1
5     2     3     1
6     2     4     1
7     2     37    1
8     3     38    1
9     3     39    1
10    3     40    1
11    4     5     am
12    4     41    1
13    5     6     2
14    5     7     1
15    7     8     1
16    7     42    1
17    7     43    1
18    8     9     1
19    8     33    1
20    8     10    1
21    10    11    1
22    10    44    1
23    10    45    1
24    11    12    1
25    11    46    1
26    11    47    1
27    12    13    1
28    12    48    1
29    12    49    1
30    13    14    am
31    13    28    1
32    14    15    2
33    14    16    1
34    16    26    ar
35    16    17    ar
36    17    18    ar
37    17    50    1
38    18    19    ar
39    18    51    1
40    19    20    1
41    19    25    ar
42    20    24    1
43    20    21    1
44    21    22    1
45    21    52    1
46    21    53    1
47    22    23    1
48    22    54    1
49    22    55    1
50    23    24    1
51    23    56    1
52    23    57    1
53    24    58    1
54    24    59    1
55    25    26    ar
56    25    60    1
57    26    27    1
58    28    33    ar
59    28    29    ar
60    29    30    ar
61    29    61    1
62    30    31    ar
63    30    62    1
64    31    32    ar
65    31    63    1
66    32    33    ar
67    32    64    1
@<TRIPOS>SUBSTRUCTURE
1   ZINC000003828536 1     RESIDUE    1   A     ZIN   1
