@<TRIPOS>MOLECULE
ZINC000001533883
  66   71    0    0    0
SMALL
USER_CHARGES
NO_NAME
@<TRIPOS>ATOM
    1 F1        0.0021    -0.0041     0.0020 F      1 <0>      -0.1300
    2 C2       -0.0162     1.3468     0.0094 C.ar   1 <0>       0.1100
    3 C3       -1.2252     2.0218     0.0304 C.ar   1 <0>      -0.1300
    4 C4       -1.2460     3.4027     0.0375 C.ar   1 <0>      -0.0900
    5 C5       -0.0538     4.1142     0.0242 C.ar   1 <0>       0.1100
    6 N6       -0.0728     5.5156     0.0319 N.pl3  1 <0>      -0.4300
    7 C7       -0.8207     6.2977    -0.8082 C.2    1 <0>       0.0600
    8 C8       -0.6074     7.5950    -0.5366 C.2    1 <0>      -0.1700
    9 C9       -1.2384     8.7721    -1.2346 C.3    1 <0>      -0.0400
   10 C10      -0.3056     9.2692    -2.3407 C.3    1 <0>      -0.1100
   11 C11      -0.9463    10.4643    -3.0494 C.3    1 <0>      -0.1500
   12 C12      -0.0135    10.9614    -4.1555 C.3    1 <0>      -0.0100
   13 N13      -0.6286    12.1089    -4.8359 N.4    1 <0>      -0.3800
   14 H14      -1.5453    11.8494    -5.1682 H      1 <0>       0.4200
   15 C15       0.2081    12.5065    -5.9744 C.3    1 <0>       0.0000
   16 C16      -0.4737    13.6438    -6.7394 C.3    1 <0>      -0.1300
   17 C17      -0.6775    14.8317    -5.7999 C.3    1 <0>       0.1500
   18 C18      -1.4726    14.3942    -4.5709 C.3    1 <0>      -0.1500
   19 C19      -0.7504    13.2270    -3.8928 C.3    1 <0>      -0.0100
   20 O20       0.5952    15.3614    -5.3977 O.3    1 <0>      -0.3500
   21 C21       0.3749    16.7757    -5.2394 C.3    1 <0>       0.0900
   22 C22      -0.7524    17.1295    -6.1814 C.ar   1 <0>      -0.1200
   23 C23      -1.1927    18.3274    -6.7040 C.ar   1 <0>      -0.0900
   24 C24      -2.2779    18.3493    -7.5616 C.ar   1 <0>      -0.1000
   25 C25      -2.9202    17.1715    -7.8944 C.ar   1 <0>      -0.1100
   26 C26      -2.4781    15.9697    -7.3713 C.ar   1 <0>      -0.0900
   27 C27      -1.3948    15.9469    -6.5178 C.ar   1 <0>      -0.1400
   28 C28       0.3551     7.6501     0.5669 C.ar   1 <0>      -0.1000
   29 C29       0.9568     8.6895     1.2780 C.ar   1 <0>      -0.0800
   30 C30       1.8388     8.4032     2.2820 C.ar   1 <0>      -0.1400
   31 C31       2.1412     7.0867     2.6006 C.ar   1 <0>      -0.0900
   32 C32       1.5589     6.0453     1.9111 C.ar   1 <0>      -0.1200
   33 C33       0.6539     6.3134     0.8900 C.ar   1 <0>       0.1000
   34 C34       1.1573     3.4355     0.0037 C.ar   1 <0>      -0.0900
   35 C35       1.1740     2.0545     0.0019 C.ar   1 <0>      -0.1300
   36 H36      -2.1523     1.4680     0.0407 H      1 <0>       0.1500
   37 H37      -2.1891     3.9289     0.0532 H      1 <0>       0.1400
   38 H38      -1.4835     5.9258    -1.5756 H      1 <0>       0.1700
   39 H39      -2.1900     8.4684    -1.6709 H      1 <0>       0.0700
   40 H40      -1.4079     9.5731    -0.5150 H      1 <0>       0.0700
   41 H41       0.6459     9.5730    -1.9043 H      1 <0>       0.0800
   42 H42      -0.1361     8.4682    -3.0603 H      1 <0>       0.0700
   43 H43      -1.8978    10.1606    -3.4858 H      1 <0>       0.0900
   44 H44      -1.1158    11.2653    -2.3298 H      1 <0>       0.0900
   45 H45       0.9381    11.2652    -3.7191 H      1 <0>       0.1300
   46 H46       0.1560    10.1604    -4.8751 H      1 <0>       0.1300
   47 H47       1.1788    12.8442    -5.6111 H      1 <0>       0.1400
   48 H48       0.3462    11.6536    -6.6389 H      1 <0>       0.1300
   49 H49       0.1540    13.9462    -7.5777 H      1 <0>       0.1200
   50 H50      -1.4402    13.3040    -7.1115 H      1 <0>       0.1000
   51 H51      -1.5519    15.2278    -3.8731 H      1 <0>       0.1200
   52 H52      -2.4702    14.0785    -4.8764 H      1 <0>       0.1000
   53 H53      -1.3206    12.9042    -3.0217 H      1 <0>       0.1300
   54 H54       0.2423    13.5483    -3.5776 H      1 <0>       0.1400
   55 H55       0.0890    16.9983    -4.2114 H      1 <0>       0.0900
   56 H56       1.2755    17.3282    -5.5073 H      1 <0>       0.1100
   57 H57      -0.6908    19.2476    -6.4437 H      1 <0>       0.1300
   58 H58      -2.6236    19.2870    -7.9709 H      1 <0>       0.1400
   59 H59      -3.7681    17.1897    -8.5630 H      1 <0>       0.1300
   60 H60      -2.9808    15.0498    -7.6311 H      1 <0>       0.1200
   61 H61       0.7265     9.7164     1.0354 H      1 <0>       0.1200
   62 H62       2.3044     9.2079     2.8317 H      1 <0>       0.1300
   63 H63       2.8401     6.8763     3.3966 H      1 <0>       0.1300
   64 H64       1.8012     5.0241     2.1659 H      1 <0>       0.1200
   65 H65       2.0857     3.9872    -0.0067 H      1 <0>       0.1400
   66 H66       2.1158     1.5262    -0.0137 H      1 <0>       0.1500
@<TRIPOS>BOND
   1    1    2 1
   2    2   35 ar
   3    2    3 ar
   4    3    4 ar
   5    3   36 1
   6    4    5 ar
   7    4   37 1
   8    5    6 1
   9    5   34 ar
  10    6   33 1
  11    6    7 1
  12    7    8 2
  13    7   38 1
  14    8    9 1
  15    8   28 1
  16    9   10 1
  17    9   39 1
  18    9   40 1
  19   10   11 1
  20   10   41 1
  21   10   42 1
  22   11   12 1
  23   11   43 1
  24   11   44 1
  25   12   13 1
  26   12   45 1
  27   12   46 1
  28   13   14 1
  29   13   19 1
  30   13   15 1
  31   15   16 1
  32   15   47 1
  33   15   48 1
  34   16   17 1
  35   16   49 1
  36   16   50 1
  37   17   27 1
  38   17   18 1
  39   17   20 1
  40   18   19 1
  41   18   51 1
  42   18   52 1
  43   19   53 1
  44   19   54 1
  45   20   21 1
  46   21   22 1
  47   21   55 1
  48   21   56 1
  49   22   27 ar
  50   22   23 ar
  51   23   24 ar
  52   23   57 1
  53   24   25 ar
  54   24   58 1
  55   25   26 ar
  56   25   59 1
  57   26   27 ar
  58   26   60 1
  59   28   33 ar
  60   28   29 ar
  61   29   30 ar
  62   29   61 1
  63   30   31 ar
  64   30   62 1
  65   31   32 ar
  66   31   63 1
  67   32   33 ar
  68   32   64 1
  69   34   35 ar
  70   34   65 1
  71   35   66 1
