@<TRIPOS>MOLECULE
ZINC000021981322
  26   27    0    0    0
SMALL
USER_CHARGES
NO_NAME
@<TRIPOS>ATOM
    1 C1        0.2132     1.1019     1.4492 C.3    1 <0>      -0.1000
    2 C2        0.1128    -0.1957     0.6894 C.2    1 <0>      -0.1900
    3 C3       -1.0521    -0.8851     0.6771 C.2    1 <0>       0.1300
    4 N4       -1.1575    -2.0564    -0.0041 N.am   1 <0>      -0.4500
    5 C5       -2.3739    -2.7519    -0.0022 C.ar   1 <0>       0.0900
    6 C6       -2.6320    -3.6971     0.9820 C.ar   1 <0>      -0.0800
    7 C7       -3.8306    -4.3821     0.9834 C.ar   1 <0>      -0.1400
    8 C8       -4.7771    -4.1266     0.0014 C.ar   1 <0>       0.1200
    9 O9       -5.9570    -4.8017     0.0031 O.3    1 <0>      -0.5000
   10 C10      -4.5200    -3.1820    -0.9819 C.ar   1 <0>      -0.1400
   11 C11      -3.3241    -2.4923    -0.9811 C.ar   1 <0>      -0.0800
   12 C12      -0.1061    -2.5558    -0.6813 C.2    1 <0>       0.5100
   13 O13      -0.2164    -3.6087    -1.2891 O.2    1 <0>      -0.5400
   14 C14       1.1172    -1.8657    -0.6890 C.2    1 <0>      -0.2400
   15 C15       1.2240    -0.6871    -0.0099 C.2    1 <0>      -0.0100
   16 H16       1.2179     1.5102     1.3397 H      1 <0>       0.0700
   17 H17      -0.5127     1.8119     1.0531 H      1 <0>       0.0700
   18 H18       0.0071     0.9220     2.5043 H      1 <0>       0.0700
   19 H19      -1.9064    -0.5005     1.2143 H      1 <0>       0.1600
   20 H20      -1.8951    -3.8966     1.7459 H      1 <0>       0.1300
   21 H21      -4.0315    -5.1172     1.7487 H      1 <0>       0.1400
   22 H22      -6.6566    -4.3698     0.5120 H      1 <0>       0.4000
   23 H23      -5.2571    -2.9837    -1.7459 H      1 <0>       0.1400
   24 H24      -3.1243    -1.7568    -1.7463 H      1 <0>       0.1300
   25 H25       1.9636    -2.2618    -1.2305 H      1 <0>       0.1500
   26 H26       2.1567    -0.1426    -0.0046 H      1 <0>       0.1400
@<TRIPOS>BOND
   1    1    2 1
   2    1   16 1
   3    1   17 1
   4    1   18 1
   5    2   15 1
   6    2    3 2
   7    3    4 1
   8    3   19 1
   9    4    5 1
  10    4   12 am
  11    5   11 ar
  12    5    6 ar
  13    6    7 ar
  14    6   20 1
  15    7    8 ar
  16    7   21 1
  17    8    9 1
  18    8   10 ar
  19    9   22 1
  20   10   11 ar
  21   10   23 1
  22   11   24 1
  23   12   13 2
  24   12   14 1
  25   14   15 2
  26   14   25 1
  27   15   26 1
