@<TRIPOS>MOLECULE
ZINC000027637710
  44   45    0    0    0
SMALL
USER_CHARGES
NO_NAME
@<TRIPOS>ATOM
    1 C1       -0.0187     1.5258     0.0104 C.3    1 <0>      -0.1800
    2 C2        0.0021    -0.0041     0.0020 C.3    1 <0>      -0.1500
    3 C3       -1.4333    -0.5336     0.0129 C.3    1 <0>       0.0200
    4 H4       -1.9701    -0.1109     0.8621 H      1 <0>       0.1400
    5 C5       -1.4133    -2.0590     0.1302 C.3    1 <0>      -0.1900
    6 N6       -2.1072    -0.1473    -1.2339 N.4    1 <0>      -0.5000
    7 H7       -2.0484     0.8531    -1.3520 H      1 <0>       0.4300
    8 H8       -1.6598    -0.6049    -2.0139 H      1 <0>       0.4300
    9 C9       -3.5184    -0.5510    -1.1732 C.3    1 <0>      -0.0500
   10 C10      -4.2203    -0.1485    -2.4717 C.3    1 <0>       0.1400
   11 H11      -3.7369    -0.6429    -3.3143 H      1 <0>       0.1300
   12 O12      -4.1369     1.2682    -2.6390 O.3    1 <0>      -0.5500
   13 C13      -5.6679    -0.5627    -2.4094 C.ar   1 <0>      -0.1500
   14 C14      -6.6007     0.2641    -1.8120 C.ar   1 <0>      -0.1100
   15 C15      -7.9237    -0.1234    -1.7561 C.ar   1 <0>      -0.1100
   16 C16      -8.3266    -1.3381    -2.2951 C.ar   1 <0>      -0.0500
   17 C17      -9.7834    -1.7053    -2.1861 C.3    1 <0>      -0.0900
   18 C18     -10.1323    -2.8176    -3.1729 C.3    1 <0>      -0.1200
   19 C19      -9.1231    -3.9578    -2.9934 C.3    1 <0>      -0.1200
   20 C20      -7.7652    -3.4852    -3.5087 C.3    1 <0>      -0.0900
   21 C21      -7.3983    -2.1593    -2.8953 C.ar   1 <0>      -0.0700
   22 C22      -6.0678    -1.7659    -2.9536 C.ar   1 <0>      -0.1000
   23 H23       1.0039     1.9031     0.0027 H      1 <0>       0.0800
   24 H24      -0.5459     1.8868    -0.8726 H      1 <0>       0.0500
   25 H25      -0.5289     1.8773     0.9072 H      1 <0>       0.0700
   26 H26       0.5123    -0.3556    -0.8948 H      1 <0>       0.0900
   27 H27       0.5293    -0.3651     0.8851 H      1 <0>       0.1100
   28 H28      -0.9132    -2.3457     1.0553 H      1 <0>       0.1100
   29 H29      -2.4359    -2.4363     0.1380 H      1 <0>       0.0800
   30 H30      -0.8764    -2.4817    -0.7190 H      1 <0>       0.0800
   31 H31      -3.5820    -1.6316    -1.0456 H      1 <0>       0.1500
   32 H32      -4.0018    -0.0565    -0.3306 H      1 <0>       0.1400
   33 H33      -4.5477     1.7735    -1.9242 H      1 <0>       0.3900
   34 H34      -6.2948     1.2101    -1.3900 H      1 <0>       0.1200
   35 H35      -8.6519     0.5231    -1.2890 H      1 <0>       0.1300
   36 H36      -9.9935    -2.0455    -1.1721 H      1 <0>       0.0800
   37 H37     -10.3924    -0.8278    -2.4036 H      1 <0>       0.0800
   38 H38     -11.1392    -3.1836    -2.9725 H      1 <0>       0.0700
   39 H39     -10.0763    -2.4350    -4.1920 H      1 <0>       0.0700
   40 H40      -9.0453    -4.2162    -1.9373 H      1 <0>       0.0700
   41 H41      -9.4486    -4.8290    -3.5619 H      1 <0>       0.0700
   42 H42      -7.0060    -4.2233    -3.2501 H      1 <0>       0.0800
   43 H43      -7.8089    -3.3800    -4.5927 H      1 <0>       0.0800
   44 H44      -5.3393    -2.4090    -3.4249 H      1 <0>       0.1300
@<TRIPOS>BOND
   1    1    2 1
   2    1   23 1
   3    1   24 1
   4    1   25 1
   5    2    3 1
   6    2   26 1
   7    2   27 1
   8    3    4 1
   9    3    5 1
  10    3    6 1
  11    5   28 1
  12    5   29 1
  13    5   30 1
  14    6    7 1
  15    6    8 1
  16    6    9 1
  17    9   10 1
  18    9   31 1
  19    9   32 1
  20   10   11 1
  21   10   12 1
  22   10   13 1
  23   12   33 1
  24   13   22 ar
  25   13   14 ar
  26   14   15 ar
  27   14   34 1
  28   15   16 ar
  29   15   35 1
  30   16   21 ar
  31   16   17 1
  32   17   18 1
  33   17   36 1
  34   17   37 1
  35   18   19 1
  36   18   38 1
  37   18   39 1
  38   19   20 1
  39   19   40 1
  40   19   41 1
  41   20   21 1
  42   20   42 1
  43   20   43 1
  44   21   22 ar
  45   22   44 1
