@<TRIPOS>MOLECULE
ZINC000004791927
  49   52    0    0    0
SMALL
USER_CHARGES
NO_NAME
@<TRIPOS>ATOM
    1 C1       -0.0187     1.5258     0.0104 C.3    1 <0>      -0.1300
    2 C2        0.0021    -0.0041     0.0020 C.3    1 <0>      -0.0600
    3 C3       -1.4161    -0.5359     0.0645 C.3    1 <0>      -0.1000
    4 C4       -2.0839     0.0838     1.3040 C.3    1 <0>      -0.1200
    5 C5       -1.3037    -0.2381     2.5737 C.3    1 <0>      -0.0700
    6 H6       -1.3307    -1.3147     2.7422 H      1 <0>       0.0700
    7 C7        0.1625     0.2129     2.4615 C.3    1 <0>      -0.0800
    8 H8        0.2039     1.2911     2.3071 H      1 <0>       0.0900
    9 C9        0.9099    -0.1520     3.7435 C.3    1 <0>      -0.1100
   10 C10       0.2497     0.5356     4.9428 C.3    1 <0>      -0.1200
   11 C11      -1.2042     0.0768     5.0424 C.3    1 <0>      -0.0700
   12 H12      -1.2347    -1.0062     5.1620 H      1 <0>       0.0800
   13 C13      -1.8954     0.7403     6.2379 C.3    1 <0>      -0.1700
   14 C14      -3.3078     0.1915     6.2944 C.2    1 <0>       0.3900
   15 O15      -3.8258    -0.0911     7.3545 O.2    1 <0>      -0.4600
   16 C16      -4.0295     0.0128     5.0305 C.2    1 <0>      -0.2400
   17 C17      -3.4016     0.1300     3.8646 C.2    1 <0>      -0.0600
   18 C18      -1.9321     0.4669     3.7734 C.3    1 <0>      -0.0300
   19 C19      -1.7869     1.9745     3.5573 C.3    1 <0>      -0.1500
   20 C20       0.7519    -0.5256     1.2577 C.3    1 <0>      -0.0800
   21 H21       0.6208    -1.6017     1.3721 H      1 <0>       0.0800
   22 C22       2.2102    -0.1987     0.9196 C.3    1 <0>      -0.1100
   23 C23       2.3136    -0.5858    -0.5811 C.3    1 <0>      -0.1600
   24 C24       0.8655    -0.5016    -1.1528 C.3    1 <0>       0.1100
   25 H25       0.5263    -1.4880    -1.4689 H      1 <0>       0.0600
   26 O26       0.8188     0.4125    -2.2502 O.3    1 <0>      -0.5600
   27 H27       1.0039     1.9031     0.0027 H      1 <0>       0.0500
   28 H28      -0.5459     1.8868    -0.8726 H      1 <0>       0.0600
   29 H29      -0.5289     1.8773     0.9072 H      1 <0>       0.0600
   30 H30      -1.9608    -0.2459    -0.8340 H      1 <0>       0.0700
   31 H31      -1.4011    -1.6220     0.1556 H      1 <0>       0.0600
   32 H32      -2.1325     1.1656     1.1797 H      1 <0>       0.0700
   33 H33      -3.0962    -0.3093     1.3979 H      1 <0>       0.0600
   34 H34       0.8814    -1.2325     3.8844 H      1 <0>       0.0600
   35 H35       1.9467     0.1748     3.6640 H      1 <0>       0.0700
   36 H36       0.7806     0.2655     5.8556 H      1 <0>       0.0700
   37 H37       0.2824     1.6165     4.8067 H      1 <0>       0.0700
   38 H38      -1.3642     0.4951     7.1576 H      1 <0>       0.0900
   39 H39      -1.9217     1.8211     6.0994 H      1 <0>       0.1000
   40 H40      -5.0846    -0.2173     5.0471 H      1 <0>       0.1300
   41 H41      -3.9646    -0.0195     2.9551 H      1 <0>       0.1300
   42 H42      -2.2374     2.5067     4.3950 H      1 <0>       0.0600
   43 H43      -0.7299     2.2317     3.4896 H      1 <0>       0.0700
   44 H44      -2.2900     2.2592     2.6332 H      1 <0>       0.0600
   45 H45       2.4096     0.8638     1.0586 H      1 <0>       0.0700
   46 H46       2.8902    -0.8018     1.5213 H      1 <0>       0.0700
   47 H47       2.9623     0.1164    -1.1048 H      1 <0>       0.0700
   48 H48       2.7017    -1.5996    -0.6801 H      1 <0>       0.0700
   49 H49       1.3785     0.1593    -2.9970 H      1 <0>       0.3800
@<TRIPOS>BOND
   1    1    2 1
   2    1   27 1
   3    1   28 1
   4    1   29 1
   5    2   20 1
   6    2   24 1
   7    2    3 1
   8    3    4 1
   9    3   30 1
  10    3   31 1
  11    4    5 1
  12    4   32 1
  13    4   33 1
  14    5    6 1
  15    5   18 1
  16    5    7 1
  17    7    8 1
  18    7    9 1
  19    7   20 1
  20    9   10 1
  21    9   34 1
  22    9   35 1
  23   10   11 1
  24   10   36 1
  25   10   37 1
  26   11   12 1
  27   11   18 1
  28   11   13 1
  29   13   14 1
  30   13   38 1
  31   13   39 1
  32   14   15 2
  33   14   16 1
  34   16   17 2
  35   16   40 1
  36   17   18 1
  37   17   41 1
  38   18   19 1
  39   19   42 1
  40   19   43 1
  41   19   44 1
  42   20   21 1
  43   20   22 1
  44   22   23 1
  45   22   45 1
  46   22   46 1
  47   23   24 1
  48   23   47 1
  49   23   48 1
  50   24   25 1
  51   24   26 1
  52   26   49 1
