@<TRIPOS>MOLECULE
ZINC000001278767
  42   45    0    0    0
SMALL
USER_CHARGES
NO_NAME
@<TRIPOS>ATOM
    1 N1        0.3939    -1.7452     0.5269 N.4    1 <0>      -0.6300
    2 H2        0.2008    -2.6939     0.8111 H      1 <0>       0.4400
    3 H3        1.3911    -1.5914     0.5235 H      1 <0>       0.4400
    4 H4        0.0265    -1.5904    -0.4000 H      1 <0>       0.4400
    5 C5       -0.2421    -0.8132     1.4676 C.3    1 <0>       0.0000
    6 H6       -1.3232    -0.9513     1.4804 H      1 <0>       0.1600
    7 C7        0.1270     0.6556     1.1303 C.3    1 <0>      -0.1400
    8 C8       -0.0049     1.3669     2.4935 C.3    1 <0>       0.1300
    9 N9        0.1245     0.3389     3.5365 N.pl3  1 <0>      -0.6600
   10 C10       0.0421     0.5605     4.9099 C.ar   1 <0>       0.2000
   11 C11       1.1972     0.8678     5.6326 C.ar   1 <0>       0.0500
   12 F12       2.3865     0.9484     4.9967 F      1 <0>      -0.1300
   13 C13       1.1300     1.0878     6.9795 C.ar   1 <0>      -0.0500
   14 C14      -0.0999     1.0049     7.6364 C.ar   1 <0>      -0.1500
   15 C15      -0.2037     1.2373     9.0868 C.2    1 <0>       0.4100
   16 O16       0.7767     1.5086     9.7580 O.2    1 <0>      -0.4300
   17 C17      -1.5422     1.1287     9.6923 C.2    1 <0>      -0.2800
   18 C18      -1.7296     1.3462    11.1303 C.2    1 <0>       0.5400
   19 O19      -2.8464     1.2535    11.6229 O.co2  1 <0>      -0.7000
   20 O20      -0.7693     1.6206    11.8381 O.co2  1 <0>      -0.6600
   21 C21      -2.6184     0.8189     8.8828 C.2    1 <0>       0.1500
   22 N22      -2.4843     0.6139     7.5672 N.pl3  1 <0>      -0.4600
   23 C23      -3.6783     0.2897     6.7826 C.3    1 <0>       0.0300
   24 C24      -5.0377     0.6598     7.3793 C.3    1 <0>      -0.1800
   25 C25      -4.4781     1.4560     6.1988 C.3    1 <0>      -0.1700
   26 C26      -1.2695     0.6959     6.9181 C.ar   1 <0>       0.2200
   27 C27      -1.1866     0.4798     5.5471 C.ar   1 <0>      -0.0700
   28 Cl28     -2.6163     0.1037     4.6370 Cl     1 <0>      -0.0400
   29 C29       0.3540    -0.9660     2.8892 C.3    1 <0>       0.1200
   30 H30       1.1496     0.7207     0.7587 H      1 <0>       0.1000
   31 H31      -0.5743     1.0733     0.4079 H      1 <0>       0.1100
   32 H32       0.7869     2.1080     2.6031 H      1 <0>       0.0700
   33 H33      -0.9796     1.8492     2.5672 H      1 <0>       0.0700
   34 H34       2.0255     1.3249     7.5348 H      1 <0>       0.1600
   35 H35      -3.5998     0.7392     9.3264 H      1 <0>       0.1800
   36 H36      -3.6193    -0.6252     6.1931 H      1 <0>       0.1500
   37 H37      -5.8734    -0.0118     7.1826 H      1 <0>       0.1100
   38 H38      -5.0437     1.1444     8.3556 H      1 <0>       0.1100
   39 H39      -4.1160     2.4645     6.3984 H      1 <0>       0.1000
   40 H40      -4.9457     1.3083     5.2253 H      1 <0>       0.1000
   41 H41      -0.1616    -1.7562     3.4350 H      1 <0>       0.0900
   42 H42       1.4216    -1.1782     2.8313 H      1 <0>       0.0700
@<TRIPOS>BOND
   1    1    2 1
   2    1    3 1
   3    1    4 1
   4    1    5 1
   5    5    6 1
   6    5   29 1
   7    5    7 1
   8    7    8 1
   9    7   30 1
  10    7   31 1
  11    8    9 1
  12    8   32 1
  13    8   33 1
  14    9   10 1
  15    9   29 1
  16   10   27 ar
  17   10   11 ar
  18   11   12 1
  19   11   13 ar
  20   13   14 ar
  21   13   34 1
  22   14   26 ar
  23   14   15 1
  24   15   16 2
  25   15   17 1
  26   17   18 1
  27   17   21 2
  28   18   19 ar
  29   18   20 ar
  30   21   22 1
  31   21   35 1
  32   22   23 1
  33   22   26 1
  34   23   25 1
  35   23   24 1
  36   23   36 1
  37   24   25 1
  38   24   37 1
  39   24   38 1
  40   25   39 1
  41   25   40 1
  42   26   27 ar
  43   27   28 1
  44   29   41 1
  45   29   42 1
