@<TRIPOS>MOLECULE
ZINC000071297091
39    42    1     0     0
SMALL
USER_CHARGES
@<TRIPOS>ATOM
1      C1     -0.0187    1.5258    0.0104 C.3      1 ZINC000071297091   -0.1500
2      C2      0.0021   -0.0041    0.0020 C.3      1 ZINC000071297091   -0.6100
3      S3      0.8511   -0.5891   -1.4904 S.o2     1 ZINC000071297091    2.5000
4      O4      0.0816   -0.2970   -2.6488 O.2      1 ZINC000071297091   -0.9300
5      O5      2.2357   -0.2745   -1.4322 O.2      1 ZINC000071297091   -0.9300
6      C6      0.7991   -2.3459   -1.3658 C.ar     1 ZINC000071297091   -0.6600
7      C7      1.8240   -3.0214   -0.7202 C.ar     1 ZINC000071297091   -0.0100
8      C8      1.7981   -4.3970   -0.6141 C.ar     1 ZINC000071297091   -0.1000
9      C9      0.7416   -5.1119   -1.1556 C.ar     1 ZINC000071297091    0.0600
10     O10     0.4349   -6.4269   -1.2155 O.3      1 ZINC000071297091   -0.2000
11     C11    -0.7335   -6.5550   -1.8725 C.2      1 ZINC000071297091    0.3000
12     C12    -1.4141   -7.8371   -2.1483 C.ar     1 ZINC000071297091   -0.0300
13     C13    -2.6322   -7.8435   -2.8507 C.ar     1 ZINC000071297091   -0.0700
14     C14    -3.2768   -9.0085   -3.1159 C.ar     1 ZINC000071297091   -0.1000
15     C15    -2.7271  -10.2302   -2.6873 C.ar     1 ZINC000071297091   -0.0300
16     C16    -3.3754  -11.4486   -2.9504 C.ar     1 ZINC000071297091   -0.1100
17     C17    -2.8189  -12.6152   -2.5232 C.ar     1 ZINC000071297091   -0.1000
18     C18    -1.6119  -12.6223   -1.8263 C.ar     1 ZINC000071297091   -0.1200
19     C19    -0.9547  -11.4625   -1.5528 C.ar     1 ZINC000071297091   -0.1000
20     C20    -1.4988  -10.2371   -1.9782 C.ar     1 ZINC000071297091   -0.0600
21     C21    -0.8445   -9.0241   -1.7179 C.ar     1 ZINC000071297091   -0.0500
22     N22    -1.1783   -5.3770   -2.2305 N.2      1 ZINC000071297091   -0.4600
23     C23    -0.2988   -4.4320   -1.8105 C.ar     1 ZINC000071297091    0.0100
24     C24    -0.2616   -3.0388   -1.9051 C.ar     1 ZINC000071297091    0.0500
25     H25     1.0039    1.9031    0.0027 H        1 ZINC000071297091    0.0800
26     H26    -0.5459    1.8868   -0.8726 H        1 ZINC000071297091    0.0800
27     H27    -0.5289    1.8773    0.9072 H        1 ZINC000071297091    0.0900
28     H28     0.5293   -0.3651    0.8851 H        1 ZINC000071297091    0.1400
29     H29    -1.0205   -0.3814    0.0098 H        1 ZINC000071297091    0.1400
30     H30     2.6486   -2.4667   -0.2976 H        1 ZINC000071297091    0.1600
31     H31     2.6002   -4.9157   -0.1101 H        1 ZINC000071297091    0.1500
32     H32    -3.0607   -6.9095   -3.1832 H        1 ZINC000071297091    0.1400
33     H33    -4.2120   -8.9972   -3.6559 H        1 ZINC000071297091    0.1400
34     H34    -4.3115  -11.4596   -3.4889 H        1 ZINC000071297091    0.1300
35     H35    -3.3206  -13.5496   -2.7271 H        1 ZINC000071297091    0.1300
36     H36    -1.1923  -13.5619   -1.4984 H        1 ZINC000071297091    0.1300
37     H37    -0.0203  -11.4828   -1.0116 H        1 ZINC000071297091    0.1300
38     H38     0.0936   -9.0153   -1.1829 H        1 ZINC000071297091    0.1400
39     H39    -1.0603   -2.5075   -2.4015 H        1 ZINC000071297091    0.1600
@<TRIPOS>BOND
1     1     2     1
2     1     25    1
3     1     26    1
4     1     27    1
5     2     3     1
6     2     28    1
7     2     29    1
8     3     4     2
9     3     5     2
10    3     6     1
11    6     24    ar
12    6     7     ar
13    7     8     ar
14    7     30    1
15    8     9     ar
16    8     31    1
17    9     23    ar
18    9     10    1
19    10    11    1
20    11    12    1
21    11    22    2
22    12    21    ar
23    12    13    ar
24    13    14    ar
25    13    32    1
26    14    15    ar
27    14    33    1
28    15    20    ar
29    15    16    ar
30    16    17    ar
31    16    34    1
32    17    18    ar
33    17    35    1
34    18    19    ar
35    18    36    1
36    19    20    ar
37    19    37    1
38    20    21    ar
39    21    38    1
40    22    23    1
41    23    24    ar
42    24    39    1
@<TRIPOS>SUBSTRUCTURE
1   ZINC000071297091 1     RESIDUE    1   A     ZIN   1
