@<TRIPOS>MOLECULE
ZINC000003872828
40    43    1     0     0
SMALL
USER_CHARGES
@<TRIPOS>ATOM
1      C1     -0.0184    1.5028    0.0103 C.3      1 ZINC000003872828   -0.1300
2      C2      0.0021   -0.0041    0.0020 C.2      1 ZINC000003872828   -0.1000
3      C3      0.0047   -0.6100   -1.1420 C.2      1 ZINC000003872828   -0.1600
4      C4      0.0337   -2.0982   -1.3053 C.3      1 ZINC000003872828   -0.0400
5      H5     -0.6544   -2.3906   -2.0986 H        1 ZINC000003872828    0.1200
6      C6      1.4490   -2.5543   -1.6635 C.3      1 ZINC000003872828   -0.1100
7      C7      2.3777   -2.3583   -0.4919 C.2      1 ZINC000003872828    0.2400
8      C8      1.9327   -2.1936    0.7704 C.2      1 ZINC000003872828   -0.2400
9      C9      2.8580   -2.0241    1.8192 C.2      1 ZINC000003872828   -0.0500
10     C10     4.1925   -2.0223    1.5539 C.2      1 ZINC000003872828   -0.2000
11     C11     4.6232   -2.1898    0.2265 C.2      1 ZINC000003872828    0.5200
12     O12     5.8154   -2.1885   -0.0354 O.2      1 ZINC000003872828   -0.5100
13     N13     3.7185   -2.3516   -0.7524 N.am     1 ZINC000003872828   -0.6100
14     C14     0.4695   -2.1738    1.1254 C.3      1 ZINC000003872828    0.1400
15     C15     0.0243   -0.7204    1.3196 C.3      1 ZINC000003872828   -0.1000
16     N16     0.2529   -2.8939    2.3856 N.4      1 ZINC000003872828   -0.5000
17     H17     0.7908   -2.4536    3.1170 H        1 ZINC000003872828    0.4200
18     H18    -0.7265   -2.8578    2.6253 H        1 ZINC000003872828    0.4300
19     C19     0.6670   -4.2943    2.2574 C.3      1 ZINC000003872828   -0.0100
20     C20    -0.2173   -4.9838    1.2143 C.3      1 ZINC000003872828   -0.1400
21     C21    -0.0254   -4.2847   -0.1325 C.3      1 ZINC000003872828   -0.1400
22     C22    -0.3665   -2.7963    0.0037 C.3      1 ZINC000003872828   -0.0900
23     H23    -1.4328   -2.6692    0.1904 H        1 ZINC000003872828    0.1100
24     H24     1.0042    1.8801    0.0026 H        1 ZINC000003872828    0.0700
25     H25    -0.5455    1.8639   -0.8728 H        1 ZINC000003872828    0.0700
26     H26    -0.5286    1.8543    0.9071 H        1 ZINC000003872828    0.0700
27     H27    -0.0156   -0.0036   -2.0354 H        1 ZINC000003872828    0.1200
28     H28     1.4297   -3.6096   -1.9354 H        1 ZINC000003872828    0.1200
29     H29     1.8112   -1.9731   -2.5116 H        1 ZINC000003872828    0.1100
30     H30     2.5083   -1.8954    2.8329 H        1 ZINC000003872828    0.1300
31     H31     4.9098   -1.8938    2.3510 H        1 ZINC000003872828    0.1600
32     H32     4.0242   -2.4665   -1.6657 H        1 ZINC000003872828    0.4200
33     H33     0.7153   -0.2183    1.9967 H        1 ZINC000003872828    0.1000
34     H34    -0.9767   -0.7037    1.7506 H        1 ZINC000003872828    0.1000
35     H35     1.7085   -4.3388    1.9390 H        1 ZINC000003872828    0.1300
36     H36     0.5565   -4.7966    3.2184 H        1 ZINC000003872828    0.1400
37     H37     0.0702   -6.0315    1.1265 H        1 ZINC000003872828    0.1100
38     H38    -1.2621   -4.9134    1.5170 H        1 ZINC000003872828    0.0900
39     H39     1.0109   -4.3927   -0.4527 H        1 ZINC000003872828    0.0900
40     H40    -0.6824   -4.7393   -0.8739 H        1 ZINC000003872828    0.1000
@<TRIPOS>BOND
1     1     2     1
2     1     24    1
3     1     25    1
4     1     26    1
5     2     15    1
6     2     3     2
7     3     4     1
8     3     27    1
9     4     5     1
10    4     22    1
11    4     6     1
12    6     7     1
13    6     28    1
14    6     29    1
15    7     13    1
16    7     8     2
17    8     9     1
18    8     14    1
19    9     10    2
20    9     30    1
21    10    11    1
22    10    31    1
23    11    12    2
24    11    13    am
25    13    32    1
26    14    22    1
27    14    15    1
28    14    16    1
29    15    33    1
30    15    34    1
31    16    17    1
32    16    18    1
33    16    19    1
34    19    20    1
35    19    35    1
36    19    36    1
37    20    21    1
38    20    37    1
39    20    38    1
40    21    22    1
41    21    39    1
42    21    40    1
43    22    23    1
@<TRIPOS>SUBSTRUCTURE
1   ZINC000003872828 1     RESIDUE    1   A     ZIN   1
