@<TRIPOS>MOLECULE
ZINC000004475105
26    27    1     0     0
SMALL
USER_CHARGES
@<TRIPOS>ATOM
1      N1      0.2387    1.0283   -0.5774 N.am     1 ZINC000004475105   -0.8400
2      C2      0.0081   -0.0305    0.2240 C.2      1 ZINC000004475105    0.5600
3      O3      0.8471   -0.3741    1.0336 O.2      1 ZINC000004475105   -0.4800
4      C4     -1.2656   -0.7741    0.1183 C.ar     1 ZINC000004475105    0.0000
5      C5     -2.4809   -0.0995    0.2312 C.ar     1 ZINC000004475105   -0.1300
6      C6     -3.6713   -0.8038    0.1311 C.ar     1 ZINC000004475105    0.1800
7      N7     -4.8916   -0.1328    0.2430 N.3      1 ZINC000004475105   -0.4100
8      C8     -4.8126    1.2066   -0.3549 C.3      1 ZINC000004475105   -0.0600
9      C9     -5.5132    0.0527   -1.0750 C.3      1 ZINC000004475105   -0.0200
10     C10    -3.6502   -2.1772   -0.0811 C.ar     1 ZINC000004475105   -0.0500
11     N11    -4.9222   -2.9267   -0.1881 N.pl3    1 ZINC000004475105    0.0300
12     O12    -4.9061   -4.1303   -0.3741 O.2      1 ZINC000004475105   -0.1500
13     O13    -5.9850   -2.3397   -0.0903 O.2      1 ZINC000004475105   -0.1100
14     C14    -2.4453   -2.8456   -0.1930 C.ar     1 ZINC000004475105    0.0300
15     C15    -1.2555   -2.1529   -0.1005 C.ar     1 ZINC000004475105   -0.0300
16     N16     0.0318   -2.8736   -0.2215 N.pl3    1 ZINC000004475105    0.0200
17     O17     0.0457   -4.0903   -0.2766 O.2      1 ZINC000004475105   -0.1400
18     O18     1.0771   -2.2500   -0.2659 O.2      1 ZINC000004475105   -0.1100
19     H19     1.0743    1.5162   -0.5080 H        1 ZINC000004475105    0.4200
20     H20    -0.4291    1.3001   -1.2262 H        1 ZINC000004475105    0.4000
21     H21    -2.4950    0.9677    0.3965 H        1 ZINC000004475105    0.1800
22     H22    -5.4384    1.9894    0.0738 H        1 ZINC000004475105    0.1400
23     H23    -3.8466    1.5316   -0.7413 H        1 ZINC000004475105    0.1100
24     H24    -5.0102   -0.3849   -1.9373 H        1 ZINC000004475105    0.1000
25     H25    -6.6020    0.0728   -1.1222 H        1 ZINC000004475105    0.1500
26     H26    -2.4352   -3.9129   -0.3578 H        1 ZINC000004475105    0.1900
@<TRIPOS>BOND
1     1     2     am
2     1     19    1
3     1     20    1
4     2     3     2
5     2     4     1
6     4     15    ar
7     4     5     ar
8     5     6     ar
9     5     21    1
10    6     7     1
11    6     10    ar
12    7     9     1
13    7     8     1
14    8     9     1
15    8     22    1
16    8     23    1
17    9     24    1
18    9     25    1
19    10    11    1
20    10    14    ar
21    11    12    2
22    11    13    2
23    14    15    ar
24    14    26    1
25    15    16    1
26    16    17    2
27    16    18    2
@<TRIPOS>SUBSTRUCTURE
1   ZINC000004475105 1     RESIDUE    1   A     ZIN   1
