@<TRIPOS>MOLECULE
ZINC000014232998
82    82    1     0     0
SMALL
USER_CHARGES
@<TRIPOS>ATOM
1      C1     -1.1397    1.2836   -0.4782 C.3      1 ZINC000014232998   -0.1500
2      C2     -0.8688   -0.2185   -0.3713 C.3      1 ZINC000014232998   -0.1300
3      C3     -0.1322   -0.6943   -1.6251 C.3      1 ZINC000014232998   -0.1200
4      C4      0.1388   -2.1963   -1.5181 C.3      1 ZINC000014232998   -0.1200
5      C5      0.8754   -2.6722   -2.7719 C.3      1 ZINC000014232998   -0.1200
6      C6      1.1463   -4.1742   -2.6650 C.3      1 ZINC000014232998   -0.1200
7      C7      1.8829   -4.6501   -3.9187 C.3      1 ZINC000014232998   -0.1100
8      C8      2.1539   -6.1521   -3.8118 C.3      1 ZINC000014232998   -0.1000
9      C9      2.8794   -6.6208   -5.0467 C.2      1 ZINC000014232998   -0.1600
10     C10     3.9944   -7.2990   -4.9336 C.2      1 ZINC000014232998   -0.1600
11     C11     4.4631   -7.7574   -3.5766 C.3      1 ZINC000014232998   -0.1000
12     C12     4.7180   -9.2657   -3.6078 C.3      1 ZINC000014232998   -0.1100
13     C13     5.1939   -9.7310   -2.2301 C.3      1 ZINC000014232998   -0.1200
14     C14     5.4488  -11.2393   -2.2612 C.3      1 ZINC000014232998   -0.1200
15     C15     5.9247  -11.7047   -0.8836 C.3      1 ZINC000014232998   -0.1200
16     C16     6.1795  -13.2130   -0.9147 C.3      1 ZINC000014232998   -0.1100
17     C17     6.6554  -13.6783    0.4629 C.3      1 ZINC000014232998   -0.1400
18     C18     6.9065  -15.1640    0.4323 C.2      1 ZINC000014232998    0.5100
19     O19     6.7228  -15.7890   -0.5907 O.2      1 ZINC000014232998   -0.5300
20     N20     7.3350  -15.7980    1.5417 N.am     1 ZINC000014232998   -0.7300
21     C21     7.5791  -17.2422    1.5119 C.3      1 ZINC000014232998    0.1600
22     C22     8.0478  -17.7006    2.8688 C.ar     1 ZINC000014232998   -0.0900
23     C23     9.3975  -17.7064    3.1664 C.ar     1 ZINC000014232998   -0.1000
24     C24     9.8326  -18.1265    4.4099 C.ar     1 ZINC000014232998   -0.1600
25     C25     8.9151  -18.5423    5.3607 C.ar     1 ZINC000014232998    0.0900
26     O26     9.3414  -18.9554    6.5843 O.3      1 ZINC000014232998   -0.3200
27     C27    10.7504  -18.9346    6.8215 C.3      1 ZINC000014232998    0.0200
28     C28    11.0360  -19.4296    8.2407 C.3      1 ZINC000014232998    0.0000
29     N29    10.6433  -20.8405    8.3556 N.4      1 ZINC000014232998   -0.6400
30     H30    11.1707  -21.3912    7.6948 H        1 ZINC000014232998    0.4400
31     H31    10.8317  -21.1669    9.2916 H        1 ZINC000014232998    0.4400
32     H32     9.6579  -20.9324    8.1593 H        1 ZINC000014232998    0.4400
33     C33     7.5558  -18.5361    5.0612 C.ar     1 ZINC000014232998    0.1100
34     O34     6.6511  -18.9430    5.9914 O.3      1 ZINC000014232998   -0.3100
35     C35     5.2731  -18.9099    5.6142 C.3      1 ZINC000014232998    0.0200
36     C36     7.1262  -18.1091    3.8153 C.ar     1 ZINC000014232998   -0.1500
37     H37    -0.1940    1.8178   -0.5688 H        1 ZINC000014232998    0.0500
38     H38    -1.7538    1.4803   -1.3570 H        1 ZINC000014232998    0.0500
39     H39    -1.6645    1.6226    0.4150 H        1 ZINC000014232998    0.0500
40     H40    -0.2547   -0.4152    0.5075 H        1 ZINC000014232998    0.0600
41     H41    -1.8145   -0.7527   -0.2808 H        1 ZINC000014232998    0.0600
42     H42    -0.7462   -0.4976   -2.5039 H        1 ZINC000014232998    0.0600
43     H43     0.8136   -0.1601   -1.7156 H        1 ZINC000014232998    0.0600
44     H44     0.7528   -2.3931   -0.6393 H        1 ZINC000014232998    0.0600
45     H45    -0.8070   -2.7306   -1.4276 H        1 ZINC000014232998    0.0600
46     H46     0.2613   -2.4754   -3.6507 H        1 ZINC000014232998    0.0600
47     H47     1.8211   -2.1379   -2.8625 H        1 ZINC000014232998    0.0600
48     H48     1.7604   -4.3710   -1.7862 H        1 ZINC000014232998    0.0600
49     H49     0.2006   -4.7085   -2.5744 H        1 ZINC000014232998    0.0600
50     H50     1.2689   -4.4533   -4.7976 H        1 ZINC000014232998    0.0600
51     H51     2.8287   -4.1158   -4.0093 H        1 ZINC000014232998    0.0600
52     H52     2.7679   -6.3489   -2.9330 H        1 ZINC000014232998    0.0800
53     H53     1.2081   -6.6864   -3.7213 H        1 ZINC000014232998    0.0700
54     H54     2.4800   -6.3976   -6.0250 H        1 ZINC000014232998    0.1100
55     H55     4.5778   -7.5297   -5.8127 H        1 ZINC000014232998    0.1100
56     H56     5.3856   -7.2383   -3.3164 H        1 ZINC000014232998    0.0700
57     H57     3.6981   -7.5335   -2.8332 H        1 ZINC000014232998    0.0800
58     H58     3.7956   -9.7848   -3.8680 H        1 ZINC000014232998    0.0600
59     H59     5.4831   -9.4896   -4.3512 H        1 ZINC000014232998    0.0600
60     H60     6.1164   -9.2120   -1.9699 H        1 ZINC000014232998    0.0600
61     H61     4.4289   -9.5071   -1.4867 H        1 ZINC000014232998    0.0600
62     H62     4.5263  -11.7584   -2.5214 H        1 ZINC000014232998    0.0600
63     H63     6.2138  -11.4633   -3.0047 H        1 ZINC000014232998    0.0600
64     H64     6.8471  -11.1856   -0.6234 H        1 ZINC000014232998    0.0600
65     H65     5.1596  -11.4808   -0.1402 H        1 ZINC000014232998    0.0600
66     H66     5.2571  -13.7321   -1.1749 H        1 ZINC000014232998    0.0700
67     H67     6.9446  -13.4369   -1.6582 H        1 ZINC000014232998    0.0700
68     H68     7.5779  -13.1593    0.7231 H        1 ZINC000014232998    0.0900
69     H69     5.8904  -13.4544    1.2063 H        1 ZINC000014232998    0.0900
70     H70     7.4819  -15.2981    2.3598 H        1 ZINC000014232998    0.4000
71     H71     6.6566  -17.7613    1.2516 H        1 ZINC000014232998    0.0800
72     H72     8.3441  -17.4662    0.7684 H        1 ZINC000014232998    0.0800
73     H73    10.1139  -17.3824    2.4260 H        1 ZINC000014232998    0.1400
74     H74    10.8879  -18.1307    4.6397 H        1 ZINC000014232998    0.1400
75     H75    11.2494  -19.5846    6.1027 H        1 ZINC000014232998    0.0900
76     H76    11.1226  -17.9162    6.7100 H        1 ZINC000014232998    0.1100
77     H77    12.1006  -19.3303    8.4528 H        1 ZINC000014232998    0.1500
78     H78    10.4663  -18.8346    8.9546 H        1 ZINC000014232998    0.1500
79     H79     5.1170  -19.5572    4.7512 H        1 ZINC000014232998    0.0600
80     H80     4.6604  -19.2587    6.4455 H        1 ZINC000014232998    0.1100
81     H81     4.9909  -17.8887    5.3583 H        1 ZINC000014232998    0.0600
82     H82     6.0720  -18.1033    3.5804 H        1 ZINC000014232998    0.1400
@<TRIPOS>BOND
1     1     2     1
2     1     37    1
3     1     38    1
4     1     39    1
5     2     3     1
6     2     40    1
7     2     41    1
8     3     4     1
9     3     42    1
10    3     43    1
11    4     5     1
12    4     44    1
13    4     45    1
14    5     6     1
15    5     46    1
16    5     47    1
17    6     7     1
18    6     48    1
19    6     49    1
20    7     8     1
21    7     50    1
22    7     51    1
23    8     9     1
24    8     52    1
25    8     53    1
26    9     10    2
27    9     54    1
28    10    11    1
29    10    55    1
30    11    12    1
31    11    56    1
32    11    57    1
33    12    13    1
34    12    58    1
35    12    59    1
36    13    14    1
37    13    60    1
38    13    61    1
39    14    15    1
40    14    62    1
41    14    63    1
42    15    16    1
43    15    64    1
44    15    65    1
45    16    17    1
46    16    66    1
47    16    67    1
48    17    18    1
49    17    68    1
50    17    69    1
51    18    19    2
52    18    20    am
53    20    21    1
54    20    70    1
55    21    22    1
56    21    71    1
57    21    72    1
58    22    36    ar
59    22    23    ar
60    23    24    ar
61    23    73    1
62    24    25    ar
63    24    74    1
64    25    26    1
65    25    33    ar
66    26    27    1
67    27    28    1
68    27    75    1
69    27    76    1
70    28    29    1
71    28    77    1
72    28    78    1
73    29    30    1
74    29    31    1
75    29    32    1
76    33    34    1
77    33    36    ar
78    34    35    1
79    35    79    1
80    35    80    1
81    35    81    1
82    36    82    1
@<TRIPOS>SUBSTRUCTURE
1   ZINC000014232998 1     RESIDUE    1   A     ZIN   1
