@<TRIPOS>MOLECULE
ZINC000001608910
  22   21    0    0    0
SMALL
USER_CHARGES
NO_NAME
@<TRIPOS>ATOM
    1 C1       -0.0160     1.3266     0.0093 C.2    1 <0>      -0.0900
    2 C2        0.0021    -0.0041     0.0020 C.2    1 <0>      -0.1600
    3 C3       -1.2926    -0.7753     0.0102 C.3    1 <0>      -0.1100
    4 C4        1.2845    -0.7214    -0.0141 C.2    1 <0>       0.5000
    5 O5        2.3286    -0.0995    -0.0207 O.2    1 <0>      -0.5100
    6 O6        1.3028    -2.0693    -0.0215 O.3    1 <0>      -0.3400
    7 C7        2.6053    -2.7108    -0.0374 C.3    1 <0>       0.0700
    8 C8        2.4254    -4.2301    -0.0438 C.3    1 <0>       0.0600
    9 O9        1.7923    -4.6297    -1.2610 O.3    1 <0>      -0.3900
   10 C10       1.5765    -6.0382    -1.3688 C.3    1 <0>       0.0300
   11 H11       0.9119     1.8793     0.0034 H      1 <0>       0.1200
   12 H12      -0.9585     1.8539     0.0167 H      1 <0>       0.1300
   13 H13      -2.1306    -0.0783     0.0220 H      1 <0>       0.0700
   14 H14      -1.3504    -1.3978    -0.8826 H      1 <0>       0.0700
   15 H15      -1.3334    -1.4074     0.8973 H      1 <0>       0.0700
   16 H16       3.1497    -2.4056    -0.9310 H      1 <0>       0.0800
   17 H17       3.1667    -2.4151     0.8489 H      1 <0>       0.0900
   18 H18       3.4001    -4.7117     0.0339 H      1 <0>       0.0800
   19 H19       1.8054    -4.5262     0.8024 H      1 <0>       0.0600
   20 H20       2.5337    -6.5573    -1.3186 H      1 <0>       0.0400
   21 H21       0.9389    -6.3718    -0.5501 H      1 <0>       0.0400
   22 H22       1.0924    -6.2599    -2.3199 H      1 <0>       0.0900
@<TRIPOS>BOND
   1    1    2 2
   2    1   11 1
   3    1   12 1
   4    2    3 1
   5    2    4 1
   6    3   13 1
   7    3   14 1
   8    3   15 1
   9    4    5 2
  10    4    6 1
  11    6    7 1
  12    7    8 1
  13    7   16 1
  14    7   17 1
  15    8    9 1
  16    8   18 1
  17    8   19 1
  18    9   10 1
  19   10   20 1
  20   10   21 1
  21   10   22 1
