@<TRIPOS>MOLECULE
ZINC000003938850
77    83    1     0     0
SMALL
USER_CHARGES
@<TRIPOS>ATOM
1      C1     -0.3889    1.7483    0.5809 C.3      1 ZINC000003938850   -0.1900
2      C2     -0.3931    0.2225    0.4681 C.3      1 ZINC000003938850    0.1200
3      H3      0.1180   -0.0755   -0.4474 H        1 ZINC000003938850    0.1100
4      O4      0.2815   -0.3404    1.5951 O.3      1 ZINC000003938850   -0.5500
5      C5     -1.8370   -0.2824    0.4335 C.3      1 ZINC000003938850   -0.2000
6      H6     -2.4479    0.1237    1.2397 H        1 ZINC000003938850    0.1300
7      C7     -2.4850   -0.1806   -0.9319 C.2      1 ZINC000003938850    0.5200
8      O8     -2.7613    0.7425   -1.6686 O.2      1 ZINC000003938850   -0.4300
9      N9     -2.6350   -1.5326   -1.0084 N.am     1 ZINC000003938850   -0.4800
10     C10    -3.9232   -2.0563   -0.9577 C.2      1 ZINC000003938850    0.0700
11     C11    -4.8506   -2.0355   -2.0963 C.2      1 ZINC000003938850    0.5300
12     O12    -5.9711   -2.5148   -1.9819 O.co2    1 ZINC000003938850   -0.6700
13     O13    -4.5031   -1.5388   -3.1597 O.co2    1 ZINC000003938850   -0.6500
14     C14    -4.2329   -2.5850    0.2427 C.2      1 ZINC000003938850   -0.1800
15     C15    -5.5210   -3.1923    0.6045 C.ar     1 ZINC000003938850    0.0800
16     C16    -6.3253   -2.5952    1.5796 C.ar     1 ZINC000003938850   -0.1000
17     C17    -7.5358   -3.1643    1.9215 C.ar     1 ZINC000003938850   -0.0400
18     C18    -7.9594   -4.3339    1.2961 C.ar     1 ZINC000003938850   -0.1900
19     C19    -9.1821   -5.1554    1.4520 C.2      1 ZINC000003938850    0.4500
20     O20   -10.1049   -4.9385    2.2114 O.2      1 ZINC000003938850   -0.4200
21     C21    -9.0686   -6.2909    0.5072 C.ar     1 ZINC000003938850   -0.1700
22     C22    -9.9103   -7.3612    0.2266 C.ar     1 ZINC000003938850   -0.0300
23     C23    -9.5432   -8.2961   -0.7271 C.ar     1 ZINC000003938850   -0.2100
24     C24   -10.4560   -9.4560   -1.0314 C.3      1 ZINC000003938850    0.0600
25     N25   -11.3813   -9.0812   -2.1091 N.4      1 ZINC000003938850   -0.2700
26     C26   -10.6153   -8.7320   -3.3129 C.3      1 ZINC000003938850   -0.0200
27     C27   -11.5791   -8.3417   -4.4353 C.3      1 ZINC000003938850   -0.0400
28     N28   -12.9620   -8.4411   -3.9499 N.4      1 ZINC000003938850   -0.2600
29     C29   -13.8873   -8.0664   -5.0275 C.3      1 ZINC000003938850   -0.0300
30     C30   -13.6552   -8.9566   -6.2211 C.2      1 ZINC000003938850    0.5100
31     N31   -14.3088   -8.7197   -7.3757 N.am     1 ZINC000003938850   -0.8100
32     O32   -12.8801   -9.8861   -6.1428 O.2      1 ZINC000003938850   -0.5300
33     C33   -13.2348   -9.8216   -3.5281 C.3      1 ZINC000003938850   -0.0400
34     C34   -12.2711  -10.2119   -2.4057 C.3      1 ZINC000003938850   -0.0200
35     C35   -13.1467   -7.5349   -2.8086 C.3      1 ZINC000003938850   -0.0200
36     C36   -12.1829   -7.9252   -1.6862 C.3      1 ZINC000003938850   -0.0300
37     C37    -8.3440   -8.1692   -1.4007 C.ar     1 ZINC000003938850   -0.0600
38     C38    -7.4957   -7.1068   -1.1300 C.ar     1 ZINC000003938850   -0.1100
39     C39    -7.8490   -6.1614   -0.1777 C.ar     1 ZINC000003938850    0.0700
40     C40    -7.1561   -4.9413    0.3131 C.ar     1 ZINC000003938850   -0.0700
41     C41    -5.9454   -4.3679   -0.0330 C.ar     1 ZINC000003938850   -0.0100
42     C42    -3.0351   -2.4501    1.1552 C.3      1 ZINC000003938850   -0.0500
43     H43    -2.7079   -3.4305    1.5016 H        1 ZINC000003938850    0.1000
44     C44    -3.3684   -1.5480    2.3451 C.3      1 ZINC000003938850   -0.1500
45     C45    -1.9545   -1.8042    0.2774 C.3      1 ZINC000003938850    0.0700
46     H46    -1.0186   -2.3600    0.2212 H        1 ZINC000003938850    0.1400
47     H47     0.6397    2.1080    0.6056 H        1 ZINC000003938850    0.0700
48     H48    -0.9035    2.1776   -0.2787 H        1 ZINC000003938850    0.0700
49     H49    -0.9000    2.0463    1.4964 H        1 ZINC000003938850    0.0600
50     H50    -0.1197   -0.1161    2.4459 H        1 ZINC000003938850    0.3700
51     H51    -5.9993   -1.6879    2.0663 H        1 ZINC000003938850    0.1400
52     H52    -8.1551   -2.7016    2.6756 H        1 ZINC000003938850    0.1400
53     H53   -10.8485   -7.4637    0.7516 H        1 ZINC000003938850    0.1400
54     H54    -9.8612  -10.3138   -1.3452 H        1 ZINC000003938850    0.1500
55     H55   -11.0244   -9.7151   -0.1382 H        1 ZINC000003938850    0.1500
56     H56    -9.9551   -7.8931   -3.0928 H        1 ZINC000003938850    0.1600
57     H57   -10.0205   -9.5898   -3.6266 H        1 ZINC000003938850    0.1600
58     H58   -11.3766   -7.3174   -4.7482 H        1 ZINC000003938850    0.1600
59     H59   -11.4420   -9.0142   -5.2821 H        1 ZINC000003938850    0.1800
60     H60   -14.9143   -8.1831   -4.6815 H        1 ZINC000003938850    0.1700
61     H61   -13.7148   -7.0278   -5.3097 H        1 ZINC000003938850    0.1700
62     H62   -14.9287   -7.9762   -7.4384 H        1 ZINC000003938850    0.4200
63     H63   -14.1594   -9.2926   -8.1440 H        1 ZINC000003938850    0.4300
64     H64   -14.2609   -9.8954   -3.1679 H        1 ZINC000003938850    0.1600
65     H65   -13.0977  -10.4941   -4.3749 H        1 ZINC000003938850    0.1900
66     H66   -11.6762  -11.0697   -2.7195 H        1 ZINC000003938850    0.1600
67     H67   -12.8394  -10.4710   -1.5125 H        1 ZINC000003938850    0.1600
68     H68   -12.9443   -6.5106   -3.1215 H        1 ZINC000003938850    0.1600
69     H69   -14.1728   -7.6087   -2.4484 H        1 ZINC000003938850    0.1600
70     H70   -12.7513   -8.1843   -0.7930 H        1 ZINC000003938850    0.1600
71     H71   -11.5228   -7.0862   -1.4661 H        1 ZINC000003938850    0.1700
72     H72    -8.0654   -8.9026   -2.1429 H        1 ZINC000003938850    0.1400
73     H73    -6.5595   -7.0148   -1.6607 H        1 ZINC000003938850    0.1500
74     H74    -5.3268   -4.8260   -0.7905 H        1 ZINC000003938850    0.1300
75     H75    -4.0938   -2.0472    2.9875 H        1 ZINC000003938850    0.0600
76     H76    -2.4602   -1.3444    2.9124 H        1 ZINC000003938850    0.0700
77     H77    -3.7887   -0.6097    1.9832 H        1 ZINC000003938850    0.0600
@<TRIPOS>BOND
1     1     2     1
2     1     47    1
3     1     48    1
4     1     49    1
5     2     3     1
6     2     4     1
7     2     5     1
8     4     50    1
9     5     6     1
10    5     45    1
11    5     7     1
12    7     8     2
13    7     9     am
14    9     45    1
15    9     10    1
16    10    11    1
17    10    14    2
18    11    12    ar
19    11    13    ar
20    14    15    1
21    14    42    1
22    15    41    ar
23    15    16    ar
24    16    17    ar
25    16    51    1
26    17    18    ar
27    17    52    1
28    18    40    ar
29    18    19    1
30    19    20    2
31    19    21    1
32    21    39    ar
33    21    22    ar
34    22    23    ar
35    22    53    1
36    23    24    1
37    23    37    ar
38    24    25    1
39    24    54    1
40    24    55    1
41    25    34    1
42    25    36    1
43    25    26    1
44    26    27    1
45    26    56    1
46    26    57    1
47    27    28    1
48    27    58    1
49    27    59    1
50    28    29    1
51    28    33    1
52    28    35    1
53    29    30    1
54    29    60    1
55    29    61    1
56    30    31    am
57    30    32    2
58    31    62    1
59    31    63    1
60    33    34    1
61    33    64    1
62    33    65    1
63    34    66    1
64    34    67    1
65    35    36    1
66    35    68    1
67    35    69    1
68    36    70    1
69    36    71    1
70    37    38    ar
71    37    72    1
72    38    39    ar
73    38    73    1
74    39    40    1
75    40    41    ar
76    41    74    1
77    42    43    1
78    42    44    1
79    42    45    1
80    44    75    1
81    44    76    1
82    44    77    1
83    45    46    1
@<TRIPOS>SUBSTRUCTURE
1   ZINC000003938850 1     RESIDUE    1   A     ZIN   1
