@<TRIPOS>MOLECULE
ZINC000000006957
  34   36    0    0    0
SMALL
USER_CHARGES
NO_NAME
@<TRIPOS>ATOM
    1 C1       -0.0303     1.5018     0.0087 C.3    1 <0>      -0.1100
    2 C2       -0.0073    -0.0050     0.0006 C.ar   1 <0>      -0.1100
    3 C3       -0.0012    -0.6882    -1.2015 C.ar   1 <0>      -0.0800
    4 C4        0.0147    -2.0685    -1.2070 C.ar   1 <0>      -0.1600
    5 C5        0.0272    -2.7706    -0.0063 C.ar   1 <0>       0.1600
    6 C6        0.0296    -2.0860     1.1986 C.ar   1 <0>      -0.1200
    7 C7        0.0134    -0.7000     1.1940 C.ar   1 <0>      -0.0800
    8 C8        0.0679    -2.8037     2.5166 C.3    1 <0>      -0.0800
    9 C9       -0.4076    -4.2410     2.4101 C.3    1 <0>      -0.1000
   10 C10       0.0321    -4.8786     1.1235 C.2    1 <0>       0.2400
   11 C11       0.4284    -6.1765     1.1228 C.2    1 <0>      -0.3200
   12 C12       0.3181    -6.9866     2.3887 C.3    1 <0>      -0.0900
   13 C13       0.9382    -6.7739    -0.0349 C.2    1 <0>       0.4000
   14 O14       1.2429    -7.9504    -0.0264 O.2    1 <0>      -0.4800
   15 C15       1.1100    -5.9612    -1.2939 C.3    1 <0>      -0.1900
   16 C16       0.0403    -4.8653    -1.3272 C.3    1 <0>       0.1100
   17 N17       0.0288    -4.1674    -0.0367 N.pl3  1 <0>      -0.5300
   18 H18       0.9916     1.8809     0.0020 H      1 <0>       0.0700
   19 H19      -0.5572     1.8619    -0.8750 H      1 <0>       0.0700
   20 H20      -0.5421     1.8526     0.9048 H      1 <0>       0.0700
   21 H21      -0.0092    -0.1433    -2.1339 H      1 <0>       0.1300
   22 H22       0.0172    -2.6040    -2.1449 H      1 <0>       0.1300
   23 H23       0.0076    -0.1603     2.1294 H      1 <0>       0.1300
   24 H24       1.0914    -2.7978     2.8916 H      1 <0>       0.0800
   25 H25      -0.5682    -2.2735     3.2253 H      1 <0>       0.0900
   26 H26      -0.0032    -4.8119     3.2459 H      1 <0>       0.1100
   27 H27      -1.4961    -4.2599     2.4622 H      1 <0>       0.1000
   28 H28      -0.7075    -6.9490     2.7560 H      1 <0>       0.0600
   29 H29       0.5927    -8.0212     2.1831 H      1 <0>       0.0700
   30 H30       0.9893    -6.5755     3.1428 H      1 <0>       0.0600
   31 H31       2.1000    -5.5052    -1.3017 H      1 <0>       0.1000
   32 H32       0.9973    -6.6078    -2.1640 H      1 <0>       0.1100
   33 H33       0.2695    -4.1563    -2.1228 H      1 <0>       0.1000
   34 H34      -0.9362    -5.3145    -1.5077 H      1 <0>       0.0800
@<TRIPOS>BOND
   1    1    2 1
   2    1   18 1
   3    1   19 1
   4    1   20 1
   5    2    7 ar
   6    2    3 ar
   7    3    4 ar
   8    3   21 1
   9    4    5 ar
  10    4   22 1
  11    5   17 1
  12    5    6 ar
  13    6    7 ar
  14    6    8 1
  15    7   23 1
  16    8    9 1
  17    8   24 1
  18    8   25 1
  19    9   10 1
  20    9   26 1
  21    9   27 1
  22   10   17 1
  23   10   11 2
  24   11   12 1
  25   11   13 1
  26   12   28 1
  27   12   29 1
  28   12   30 1
  29   13   14 2
  30   13   15 1
  31   15   16 1
  32   15   31 1
  33   15   32 1
  34   16   17 1
  35   16   33 1
  36   16   34 1
