@<TRIPOS>MOLECULE
ZINC000150275965
49    52    1     0     0
SMALL
USER_CHARGES
@<TRIPOS>ATOM
1      O1     -0.1308    0.0288    0.3656 O.2      1 ZINC000150275965   -0.5100
2      C2     -0.1291    1.1057   -0.1992 C.2      1 ZINC000150275965    0.5700
3      N3      0.9311    1.4736   -0.9454 N.am     1 ZINC000150275965   -0.6700
4      C4      2.0773    0.6696   -0.9779 C.ar     1 ZINC000150275965    0.1300
5      C5      3.3342    1.2546   -1.0582 C.ar     1 ZINC000150275965   -0.1000
6      C6      4.4639    0.4613   -1.0896 C.ar     1 ZINC000150275965   -0.1000
7      C7      4.3435   -0.9199   -1.0410 C.ar     1 ZINC000150275965    0.0900
8      O8      5.4564   -1.7005   -1.0721 O.3      1 ZINC000150275965   -0.3000
9      C9      5.2586   -3.1147   -1.0186 C.3      1 ZINC000150275965    0.4900
10     F10     4.5982   -3.4487    0.1686 F        1 ZINC000150275965   -0.1500
11     F11     4.4852   -3.5191   -2.1120 F        1 ZINC000150275965   -0.1600
12     Cl12    6.8568   -3.9476   -1.0720 Cl       1 ZINC000150275965   -0.0400
13     C13     3.0883   -1.5050   -0.9603 C.ar     1 ZINC000150275965   -0.1700
14     C14     1.9579   -0.7128   -0.9240 C.ar     1 ZINC000150275965   -0.0800
15     C15    -1.2904    2.0070   -0.0724 C.ar     1 ZINC000150275965   -0.1900
16     C16    -1.3002    3.2429   -0.7217 C.ar     1 ZINC000150275965    0.1500
17     N17    -2.3313    4.0546   -0.6151 N.ar     1 ZINC000150275965   -0.5100
18     C18    -3.3977    3.7412    0.1055 C.ar     1 ZINC000150275965    0.3400
19     N19    -4.4547    4.6299    0.1848 N.3      1 ZINC000150275965   -0.4600
20     C20    -4.9763    4.9541   -1.1600 C.3      1 ZINC000150275965    0.0500
21     C21    -5.4372    6.4296   -1.0604 C.3      1 ZINC000150275965   -0.1600
22     C22    -4.3491    7.0360   -0.1357 C.3      1 ZINC000150275965    0.0900
23     H23    -3.4605    7.3013   -0.7086 H        1 ZINC000150275965    0.0700
24     O24    -4.8566    8.1750    0.5623 O.3      1 ZINC000150275965   -0.5600
25     C25    -4.0430    5.8832    0.8434 C.3      1 ZINC000150275965    0.0600
26     C26    -3.4674    2.5166    0.7896 C.ar     1 ZINC000150275965   -0.0300
27     C27    -4.6650    2.1709    1.5944 C.2      1 ZINC000150275965    0.1100
28     N28    -5.7525    2.9022    1.7181 N.2      1 ZINC000150275965   -0.2200
29     N29    -6.6412    2.2219    2.5603 N.pl3    1 ZINC000150275965   -0.4800
30     C30    -6.0588    1.0638    2.9386 C.2      1 ZINC000150275965    0.0600
31     C31    -4.8417    0.9993    2.3562 C.2      1 ZINC000150275965   -0.2600
32     C32    -2.4003    1.6309    0.6968 C.ar     1 ZINC000150275965    0.0100
33     H33     0.9003    2.2953   -1.4601 H        1 ZINC000150275965    0.4100
34     H34     3.4280    2.3299   -1.0964 H        1 ZINC000150275965    0.1400
35     H35     5.4414    0.9161   -1.1525 H        1 ZINC000150275965    0.1500
36     H36     2.9954   -2.5804   -0.9222 H        1 ZINC000150275965    0.1400
37     H37     0.9808   -1.1685   -0.8611 H        1 ZINC000150275965    0.1500
38     H38    -0.4502    3.5373   -1.3193 H        1 ZINC000150275965    0.1600
39     H39    -4.1892    4.8520   -1.9071 H        1 ZINC000150275965    0.0600
40     H40    -5.8198    4.3088   -1.4056 H        1 ZINC000150275965    0.0900
41     H41    -5.4284    6.9084   -2.0396 H        1 ZINC000150275965    0.0800
42     H42    -6.4233    6.5006   -0.6016 H        1 ZINC000150275965    0.0900
43     H43    -5.1338    8.8991   -0.0156 H        1 ZINC000150275965    0.3800
44     H44    -4.6076    6.0202    1.7657 H        1 ZINC000150275965    0.1000
45     H45    -2.9752    5.8546    1.0605 H        1 ZINC000150275965    0.0700
46     H46    -7.5220    2.5293    2.8258 H        1 ZINC000150275965    0.4400
47     H47    -6.4915    0.3185    3.5895 H        1 ZINC000150275965    0.1800
48     H48    -4.1284    0.1951    2.4608 H        1 ZINC000150275965    0.1500
49     H49    -2.4222    0.6811    1.2105 H        1 ZINC000150275965    0.1600
@<TRIPOS>BOND
1     1     2     2
2     2     3     am
3     2     15    1
4     3     4     1
5     3     33    1
6     4     14    ar
7     4     5     ar
8     5     6     ar
9     5     34    1
10    6     7     ar
11    6     35    1
12    7     8     1
13    7     13    ar
14    8     9     1
15    9     10    1
16    9     11    1
17    9     12    1
18    13    14    ar
19    13    36    1
20    14    37    1
21    15    32    ar
22    15    16    ar
23    16    17    ar
24    16    38    1
25    17    18    ar
26    18    19    1
27    18    26    ar
28    19    25    1
29    19    20    1
30    20    21    1
31    20    39    1
32    20    40    1
33    21    22    1
34    21    41    1
35    21    42    1
36    22    23    1
37    22    24    1
38    22    25    1
39    24    43    1
40    25    44    1
41    25    45    1
42    26    27    1
43    26    32    ar
44    27    31    1
45    27    28    2
46    28    29    1
47    29    30    1
48    29    46    1
49    30    31    2
50    30    47    1
51    31    48    1
52    32    49    1
@<TRIPOS>SUBSTRUCTURE
1   ZINC000150275965 1     RESIDUE    1   A     ZIN   1
