@<TRIPOS>MOLECULE
ZINC000004098919
52    56    1     0     0
SMALL
USER_CHARGES
@<TRIPOS>ATOM
1      C1     -0.0173    1.4248    0.0099 C.3      1 ZINC000004098919    0.0200
2      O2      0.0021   -0.0041    0.0020 O.3      1 ZINC000004098919   -0.3000
3      C3     -1.2011   -0.6379    0.0101 C.ar     1 ZINC000004098919    0.1600
4      C4     -2.3748    0.1005    0.0195 C.ar     1 ZINC000004098919   -0.2300
5      C5     -3.5982   -0.5428    0.0277 C.ar     1 ZINC000004098919   -0.0100
6      C6     -4.8712    0.2637    0.0379 C.3      1 ZINC000004098919    0.0100
7      H7     -4.6044    1.3205    0.0371 H        1 ZINC000004098919    0.1100
8      C8     -5.6053   -0.0340    1.3069 C.ar     1 ZINC000004098919   -0.0400
9      C9     -4.8319   -0.1122    2.4708 C.ar     1 ZINC000004098919   -0.0900
10     C10    -5.4760   -0.3647    3.6690 C.ar     1 ZINC000004098919    0.0400
11     C11    -6.8681   -0.5346    3.7148 C.ar     1 ZINC000004098919    0.0400
12     C12    -7.6273   -0.4625    2.5599 C.ar     1 ZINC000004098919   -0.1000
13     C13    -6.9672   -0.2205    1.3520 C.ar     1 ZINC000004098919   -0.1100
14     C14    -7.8131   -0.2094    0.1139 C.3      1 ZINC000004098919    0.1800
15     H15    -8.6649    0.4479    0.2884 H        1 ZINC000004098919    0.0800
16     O16    -8.3089   -1.5323   -0.1011 O.3      1 ZINC000004098919   -0.5600
17     C17    -7.1297    0.2346   -1.1280 C.3      1 ZINC000004098919   -0.1200
18     H18    -7.5913   -0.3052   -1.9548 H        1 ZINC000004098919    0.1100
19     C19    -7.2660    1.7273   -1.4534 C.3      1 ZINC000004098919    0.0700
20     O20    -5.9138    2.1603   -1.8209 O.3      1 ZINC000004098919   -0.3600
21     C21    -5.2308    1.0643   -2.2448 C.2      1 ZINC000004098919    0.4900
22     O22    -4.4838    0.9713   -3.1898 O.2      1 ZINC000004098919   -0.4200
23     C23    -5.6327   -0.0347   -1.2360 C.3      1 ZINC000004098919   -0.1200
24     H24    -5.4250   -1.0352   -1.6156 H        1 ZINC000004098919    0.1300
25     O25    -7.2380   -0.7595    4.9960 O.3      1 ZINC000004098919   -0.3000
26     C26    -6.0256   -1.1229    5.6888 C.3      1 ZINC000004098919    0.2100
27     O27    -4.9807   -0.4897    4.9214 O.3      1 ZINC000004098919   -0.3000
28     C28    -3.6572   -1.9238    0.0261 C.ar     1 ZINC000004098919   -0.2200
29     C29    -2.4882   -2.6696    0.0168 C.ar     1 ZINC000004098919    0.1500
30     O30    -2.5472   -4.0282    0.0153 O.3      1 ZINC000004098919   -0.3000
31     C31    -3.8474   -4.6211    0.0237 C.3      1 ZINC000004098919    0.0200
32     C32    -1.2561   -2.0266    0.0032 C.ar     1 ZINC000004098919    0.0300
33     O33    -0.1065   -2.7549   -0.0060 O.3      1 ZINC000004098919   -0.3100
34     C34     0.4292   -3.1054   -1.2836 C.3      1 ZINC000004098919    0.0400
35     H35     1.0053    1.8021    0.0021 H        1 ZINC000004098919    0.1000
36     H36    -0.5445    1.7859   -0.8732 H        1 ZINC000004098919    0.0600
37     H37    -0.5275    1.7763    0.9067 H        1 ZINC000004098919    0.0600
38     H38    -2.3329    1.1797    0.0207 H        1 ZINC000004098919    0.1400
39     H39    -3.7607    0.0207    2.4345 H        1 ZINC000004098919    0.1400
40     H40    -8.6993   -0.5899    2.5911 H        1 ZINC000004098919    0.1400
41     H41    -8.8501   -1.8723    0.6246 H        1 ZINC000004098919    0.3800
42     H42    -7.9504    1.8719   -2.2893 H        1 ZINC000004098919    0.1000
43     H43    -7.6146    2.2755   -0.5782 H        1 ZINC000004098919    0.1100
44     H44    -6.0380   -0.7374    6.7083 H        1 ZINC000004098919    0.1400
45     H45    -5.8961   -2.2052    5.6902 H        1 ZINC000004098919    0.0900
46     H46    -4.6151   -2.4227    0.0325 H        1 ZINC000004098919    0.1400
47     H47    -3.7517   -5.7069    0.0215 H        1 ZINC000004098919    0.1000
48     H48    -4.3849   -4.3056    0.9179 H        1 ZINC000004098919    0.0600
49     H49    -4.3975   -4.3031   -0.8620 H        1 ZINC000004098919    0.0600
50     H50    -0.2998   -3.7019   -1.8321 H        1 ZINC000004098919    0.0400
51     H51     0.6527   -2.1983   -1.8452 H        1 ZINC000004098919    0.0400
52     H52     1.3434   -3.6833   -1.1481 H        1 ZINC000004098919    0.0900
@<TRIPOS>BOND
1     1     2     1
2     1     35    1
3     1     36    1
4     1     37    1
5     2     3     1
6     3     32    ar
7     3     4     ar
8     4     5     ar
9     4     38    1
10    5     6     1
11    5     28    ar
12    6     7     1
13    6     23    1
14    6     8     1
15    8     13    ar
16    8     9     ar
17    9     10    ar
18    9     39    1
19    10    27    1
20    10    11    ar
21    11    12    ar
22    11    25    1
23    12    13    ar
24    12    40    1
25    13    14    1
26    14    15    1
27    14    16    1
28    14    17    1
29    16    41    1
30    17    18    1
31    17    23    1
32    17    19    1
33    19    20    1
34    19    42    1
35    19    43    1
36    20    21    1
37    21    22    2
38    21    23    1
39    23    24    1
40    25    26    1
41    26    27    1
42    26    44    1
43    26    45    1
44    28    29    ar
45    28    46    1
46    29    30    1
47    29    32    ar
48    30    31    1
49    31    47    1
50    31    48    1
51    31    49    1
52    32    33    1
53    33    34    1
54    34    50    1
55    34    51    1
56    34    52    1
@<TRIPOS>SUBSTRUCTURE
1   ZINC000004098919 1     RESIDUE    1   A     ZIN   1
