@<TRIPOS>MOLECULE
ZINC000004556523
  13   14    0    0    0
SMALL
USER_CHARGES
NO_NAME
@<TRIPOS>ATOM
    1 N1       -0.0162     1.3467     0.0094 N.pl3  1 <0>      -0.7700
    2 C2        0.0021    -0.0041     0.0020 C.2    1 <0>       0.4800
    3 N3       -1.0336    -0.8048     0.0019 N.2    1 <0>      -0.6300
    4 C4       -0.6829    -2.0945    -0.0067 C.2    1 <0>       0.6300
    5 O5       -1.4792    -3.0151    -0.0027 O.2    1 <0>      -0.4600
    6 N6        0.6543    -2.2570    -0.0207 N.am   1 <0>      -0.5200
    7 C7        1.4297    -1.8435    -1.1931 C.3    1 <0>       0.0600
    8 C8        1.2257    -0.8981    -0.0145 C.3    1 <0>      -0.0800
    9 H9        2.0735    -0.6188     0.6112 H      1 <0>       0.1800
   10 H10       0.8171     1.8430     0.0042 H      1 <0>       0.4300
   11 H11      -0.8628     1.8202     0.0160 H      1 <0>       0.4200
   12 H12       2.4188    -2.2823    -1.3249 H      1 <0>       0.1500
   13 H13       0.8821    -1.6286    -2.1107 H      1 <0>       0.1100
@<TRIPOS>BOND
   1    1    2 1
   2    1   10 1
   3    1   11 1
   4    2    8 1
   5    2    3 2
   6    3    4 1
   7    4    5 2
   8    4    6 am
   9    6    8 1
  10    6    7 1
  11    7    8 1
  12    7   12 1
  13    7   13 1
  14    8    9 1
