@<TRIPOS>MOLECULE
ZINC000000002300
26    27    1     0     0
SMALL
USER_CHARGES
@<TRIPOS>ATOM
1      N1     -0.0166    1.3721    0.0096 N.pl3    1 ZINC000000002300   -0.8100
2      C2      0.0021   -0.0041    0.0020 C.2      1 ZINC000000002300    0.4900
3      N3     -1.1353   -0.6865    0.0037 N.2      1 ZINC000000002300   -0.5900
4      C4     -1.1301   -2.0182   -0.0035 C.2      1 ZINC000000002300    0.6600
5      O5     -2.1902   -2.6221   -0.0021 O.2      1 ZINC000000002300   -0.5100
6      N6      0.0246   -2.7090   -0.0127 N.am     1 ZINC000000002300   -0.5200
7      C7     -0.0024   -4.1737   -0.0210 C.3      1 ZINC000000002300    0.3100
8      H8      1.0081   -4.5677   -0.1295 H        1 ZINC000000002300    0.1200
9      C9     -0.6305   -4.6913    1.2528 C.2      1 ZINC000000002300   -0.1900
10     C10    -1.4551   -5.6640    0.9421 C.2      1 ZINC000000002300   -0.1400
11     C11    -1.4259   -5.8528   -0.5574 C.3      1 ZINC000000002300    0.1000
12     H12    -0.8129   -6.7161   -0.8162 H        1 ZINC000000002300    0.1000
13     C13    -2.8469   -6.0347   -1.0947 C.3      1 ZINC000000002300    0.0800
14     O14    -2.7939   -6.3273   -2.4924 O.3      1 ZINC000000002300   -0.5700
15     O15    -0.8394   -4.6496   -1.0922 O.3      1 ZINC000000002300   -0.3400
16     C16     1.2207   -2.0521   -0.0148 C.2      1 ZINC000000002300    0.1700
17     C17     1.2316   -0.6971   -0.0134 C.2      1 ZINC000000002300   -0.0900
18     F18     2.4009   -0.0203   -0.0155 F        1 ZINC000000002300   -0.1200
19     H19     0.8168    1.8684    0.0043 H        1 ZINC000000002300    0.4200
20     H20    -0.8631    1.8456    0.0162 H        1 ZINC000000002300    0.4200
21     H21    -0.4338   -4.3236    2.2491 H        1 ZINC000000002300    0.1500
22     H22    -2.0530   -6.2325    1.6391 H        1 ZINC000000002300    0.1600
23     H23    -3.3315   -6.8576   -0.5693 H        1 ZINC000000002300    0.0600
24     H24    -3.4152   -5.1180   -0.9367 H        1 ZINC000000002300    0.0700
25     H25    -3.6611   -6.4553   -2.9006 H        1 ZINC000000002300    0.3800
26     H26     2.1479   -2.6058   -0.0218 H        1 ZINC000000002300    0.1900
@<TRIPOS>BOND
1     1     2     1
2     1     19    1
3     1     20    1
4     2     17    1
5     2     3     2
6     3     4     1
7     4     5     2
8     4     6     am
9     6     7     1
10    6     16    1
11    7     8     1
12    7     15    1
13    7     9     1
14    9     10    2
15    9     21    1
16    10    11    1
17    10    22    1
18    11    12    1
19    11    13    1
20    11    15    1
21    13    14    1
22    13    23    1
23    13    24    1
24    14    25    1
25    16    17    2
26    16    26    1
27    17    18    1
@<TRIPOS>SUBSTRUCTURE
1   ZINC000000002300 1     RESIDUE    1   A     ZIN   1
