@<TRIPOS>MOLECULE
ZINC000003919807
82    84    1     0     0
SMALL
USER_CHARGES
@<TRIPOS>ATOM
1      C1      1.4312   -2.5148    2.7762 C.3      1 ZINC000003919807   -0.1500
2      C2      1.3125   -3.8609    2.0589 C.3      1 ZINC000003919807    0.0600
3      O3      1.7116   -3.7068    0.6713 O.3      1 ZINC000003919807   -0.3500
4      C4      1.6643   -4.8078   -0.1050 C.2      1 ZINC000003919807    0.4900
5      O5      1.2994   -5.8675    0.3650 O.2      1 ZINC000003919807   -0.5100
6      C6      2.0538   -4.7266   -1.5196 C.2      1 ZINC000003919807   -0.1600
7      C7      2.0071   -5.8136   -2.2861 C.2      1 ZINC000003919807   -0.0700
8      C8      2.4066   -5.7303   -3.7368 C.3      1 ZINC000003919807    0.1600
9      H9      2.7019   -4.7083   -3.9743 H        1 ZINC000003919807    0.1200
10     C10     1.2221   -6.1364   -4.6160 C.3      1 ZINC000003919807   -0.1100
11     C11     0.1074   -5.0970   -4.4819 C.3      1 ZINC000003919807   -0.1300
12     H12    -0.1950   -4.9957   -3.4396 H        1 ZINC000003919807    0.1100
13     C13    -1.1036   -5.4856   -5.3614 C.3      1 ZINC000003919807   -0.1300
14     C14    -0.8130   -4.7028   -6.6611 C.3      1 ZINC000003919807    0.1000
15     N15     0.0228   -3.5668   -6.2554 N.am     1 ZINC000003919807   -0.7300
16     C16     0.5582   -3.7629   -5.0345 C.2      1 ZINC000003919807    0.5300
17     O17     1.2931   -2.9841   -4.4650 O.2      1 ZINC000003919807   -0.5200
18     N18     3.5322   -6.6343   -3.9859 N.am     1 ZINC000003919807   -0.7200
19     C19     4.3935   -6.3771   -4.9902 C.2      1 ZINC000003919807    0.5200
20     O20     4.2053   -5.4289   -5.7226 O.2      1 ZINC000003919807   -0.5300
21     C21     5.5904   -7.2677   -5.2031 C.3      1 ZINC000003919807   -0.0900
22     H22     5.2658   -8.3072   -5.2511 H        1 ZINC000003919807    0.1100
23     C23     6.2818   -6.8882   -6.5141 C.3      1 ZINC000003919807   -0.1600
24     C24     7.4038   -7.8560   -6.7888 C.2      1 ZINC000003919807    0.3600
25     O25     7.5671   -8.8114   -6.0684 O.2      1 ZINC000003919807   -0.4300
26     C26     8.3221   -7.6316   -7.9624 C.3      1 ZINC000003919807    0.1100
27     H27     8.2815   -8.4954   -8.6259 H        1 ZINC000003919807    0.1300
28     N28     7.8978   -6.4345   -8.6925 N.am     1 ZINC000003919807   -0.7100
29     C29     8.2005   -6.2993   -9.9989 C.2      1 ZINC000003919807    0.6100
30     O30     8.8254   -7.1701  -10.5710 O.2      1 ZINC000003919807   -0.5100
31     C31     7.7709   -5.0872  -10.7382 C.2      1 ZINC000003919807   -0.0300
32     N32     7.1012   -4.0688  -10.2586 N.2      1 ZINC000003919807   -0.3300
33     O33     6.9004   -3.2323  -11.1082 O.3      1 ZINC000003919807    0.1300
34     C34     7.4197   -3.5885  -12.2912 C.2      1 ZINC000003919807   -0.0300
35     C35     7.3650   -2.7975  -13.5728 C.3      1 ZINC000003919807   -0.0800
36     C36     8.0084   -4.7933  -12.1098 C.2      1 ZINC000003919807   -0.1900
37     C37     9.7547   -7.4414   -7.4599 C.3      1 ZINC000003919807   -0.1000
38     C38     9.7948   -6.2850   -6.4590 C.3      1 ZINC000003919807   -0.1600
39     C39    10.2298   -8.7248   -6.7758 C.3      1 ZINC000003919807   -0.1600
40     C40     6.5697   -7.0925   -4.0407 C.3      1 ZINC000003919807   -0.0800
41     C41     5.9441   -7.6158   -2.7735 C.ar     1 ZINC000003919807   -0.1100
42     C42     5.2394   -6.7608   -1.9469 C.ar     1 ZINC000003919807   -0.0800
43     C43     4.6653   -7.2396   -0.7845 C.ar     1 ZINC000003919807   -0.1500
44     C44     4.7957   -8.5764   -0.4483 C.ar     1 ZINC000003919807    0.1000
45     F45     4.2345   -9.0457    0.6875 F        1 ZINC000003919807   -0.1400
46     C46     5.5014   -9.4319   -1.2773 C.ar     1 ZINC000003919807   -0.1500
47     C47     6.0706   -8.9519   -2.4415 C.ar     1 ZINC000003919807   -0.0800
48     H48     2.4639   -2.1690    2.7315 H        1 ZINC000003919807    0.0700
49     H49     0.7826   -1.7858    2.2905 H        1 ZINC000003919807    0.0700
50     H50     1.1316   -2.6305    3.8179 H        1 ZINC000003919807    0.0800
51     H51     1.9611   -4.5900    2.5446 H        1 ZINC000003919807    0.0700
52     H52     0.2798   -4.2067    2.1036 H        1 ZINC000003919807    0.0700
53     H53     2.3780   -3.7849   -1.9373 H        1 ZINC000003919807    0.1500
54     H54     1.6829   -6.7553   -1.8684 H        1 ZINC000003919807    0.1300
55     H55     1.5439   -6.1920   -5.6560 H        1 ZINC000003919807    0.0800
56     H56     0.8507   -7.1106   -4.2981 H        1 ZINC000003919807    0.0800
57     H57    -1.1213   -6.5593   -5.5483 H        1 ZINC000003919807    0.0900
58     H58    -2.0376   -5.1548   -4.9073 H        1 ZINC000003919807    0.0900
59     H59    -0.2748   -5.3334   -7.3688 H        1 ZINC000003919807    0.0700
60     H60    -1.7437   -4.3474   -7.1034 H        1 ZINC000003919807    0.0800
61     H61     0.1707   -2.7753   -6.7964 H        1 ZINC000003919807    0.4100
62     H62     3.6577   -7.4179   -3.4281 H        1 ZINC000003919807    0.4000
63     H63     5.5601   -6.9276   -7.3301 H        1 ZINC000003919807    0.1100
64     H64     6.6844   -5.8785   -6.4335 H        1 ZINC000003919807    0.1100
65     H65     7.3989   -5.7392   -8.2358 H        1 ZINC000003919807    0.4100
66     H66     6.8272   -1.8650  -13.4016 H        1 ZINC000003919807    0.0900
67     H67     8.3787   -2.5762  -13.9068 H        1 ZINC000003919807    0.1000
68     H68     6.8495   -3.3792  -14.3370 H        1 ZINC000003919807    0.1000
69     H69     8.5312   -5.3951  -12.8385 H        1 ZINC000003919807    0.1800
70     H70    10.4083   -7.2155   -8.3025 H        1 ZINC000003919807    0.0900
71     H71     9.1413   -6.5109   -5.6164 H        1 ZINC000003919807    0.0500
72     H72    10.8154   -6.1495   -6.1010 H        1 ZINC000003919807    0.0700
73     H73     9.4564   -5.3707   -6.9464 H        1 ZINC000003919807    0.0600
74     H74    10.1797   -9.5532   -7.4824 H        1 ZINC000003919807    0.0600
75     H75    11.2582   -8.5972   -6.4379 H        1 ZINC000003919807    0.0600
76     H76     9.5899   -8.9384   -5.9196 H        1 ZINC000003919807    0.0800
77     H77     7.4848   -7.6465   -4.2499 H        1 ZINC000003919807    0.1000
78     H78     6.8048   -6.0350   -3.9200 H        1 ZINC000003919807    0.0800
79     H79     5.1378   -5.7181   -2.2093 H        1 ZINC000003919807    0.1300
80     H80     4.1154   -6.5712   -0.1385 H        1 ZINC000003919807    0.1300
81     H81     5.6040  -10.4748   -1.0159 H        1 ZINC000003919807    0.1400
82     H82     6.6207   -9.6191   -3.0884 H        1 ZINC000003919807    0.1400
@<TRIPOS>BOND
1     1     2     1
2     1     48    1
3     1     49    1
4     1     50    1
5     2     3     1
6     2     51    1
7     2     52    1
8     3     4     1
9     4     5     2
10    4     6     1
11    6     7     2
12    6     53    1
13    7     8     1
14    7     54    1
15    8     9     1
16    8     10    1
17    8     18    1
18    10    11    1
19    10    55    1
20    10    56    1
21    11    12    1
22    11    16    1
23    11    13    1
24    13    14    1
25    13    57    1
26    13    58    1
27    14    15    1
28    14    59    1
29    14    60    1
30    15    16    am
31    15    61    1
32    16    17    2
33    18    19    am
34    18    62    1
35    19    20    2
36    19    21    1
37    21    22    1
38    21    23    1
39    21    40    1
40    23    24    1
41    23    63    1
42    23    64    1
43    24    25    2
44    24    26    1
45    26    27    1
46    26    28    1
47    26    37    1
48    28    29    am
49    28    65    1
50    29    30    2
51    29    31    1
52    31    36    1
53    31    32    2
54    32    33    1
55    33    34    1
56    34    35    1
57    34    36    2
58    35    66    1
59    35    67    1
60    35    68    1
61    36    69    1
62    37    38    1
63    37    39    1
64    37    70    1
65    38    71    1
66    38    72    1
67    38    73    1
68    39    74    1
69    39    75    1
70    39    76    1
71    40    41    1
72    40    77    1
73    40    78    1
74    41    47    ar
75    41    42    ar
76    42    43    ar
77    42    79    1
78    43    44    ar
79    43    80    1
80    44    45    1
81    44    46    ar
82    46    47    ar
83    46    81    1
84    47    82    1
@<TRIPOS>SUBSTRUCTURE
1   ZINC000003919807 1     RESIDUE    1   A     ZIN   1
