@<TRIPOS>MOLECULE
ZINC000001537048
58    59    1     0     0
SMALL
USER_CHARGES
@<TRIPOS>ATOM
1      C1      0.7233    2.0893   -0.5936 C.3      1 ZINC000001537048   -0.0400
2      C2      0.5472    0.6401   -0.4049 C.1      1 ZINC000001537048   -0.1700
3      C3      0.4067   -0.5157   -0.2544 C.1      1 ZINC000001537048   -0.2100
4      C4      0.2306   -1.9649   -0.0657 C.3      1 ZINC000001537048    0.2400
5      O5      0.7899   -2.6619   -1.1808 O.3      1 ZINC000001537048   -0.3600
6      C6      2.1868   -2.4282   -1.3711 C.3      1 ZINC000001537048    0.0700
7      C7      2.6755   -3.2200   -2.5856 C.3      1 ZINC000001537048    0.0800
8      H8      2.4245   -4.2729   -2.4579 H        1 ZINC000001537048    0.0600
9      C9      4.1925   -3.0694   -2.7158 C.3      1 ZINC000001537048    0.0700
10     O10     4.6683   -3.9234   -3.7581 O.3      1 ZINC000001537048   -0.3800
11     C11     6.0810   -3.8586   -3.9632 C.3      1 ZINC000001537048    0.0700
12     C12     6.4759   -4.8082   -5.0960 C.3      1 ZINC000001537048   -0.0900
13     C13     7.9669   -4.6477   -5.3995 C.3      1 ZINC000001537048   -0.1500
14     C14     6.1940   -6.2514   -4.6734 C.3      1 ZINC000001537048   -0.1400
15     N15     2.0266   -2.7056   -3.7990 N.3      1 ZINC000001537048   -0.5100
16     C16     2.5099   -3.4233   -5.0062 C.3      1 ZINC000001537048    0.0500
17     C17     1.3963   -3.1531   -6.0489 C.3      1 ZINC000001537048   -0.1300
18     C18     0.1064   -3.2052   -5.1984 C.3      1 ZINC000001537048   -0.1300
19     C19     0.5654   -2.9303   -3.7544 C.3      1 ZINC000001537048    0.0500
20     C20     0.9405   -2.4022    1.2172 C.3      1 ZINC000001537048   -0.1400
21     C21     0.3416   -1.6559    2.4111 C.3      1 ZINC000001537048   -0.1200
22     C22    -1.1501   -1.9787    2.5182 C.3      1 ZINC000001537048   -0.1200
23     C23    -1.8599   -1.5415    1.2353 C.3      1 ZINC000001537048   -0.1200
24     C24    -1.2611   -2.2877    0.0414 C.3      1 ZINC000001537048   -0.1000
25     H25     1.7860    2.3192   -0.6699 H        1 ZINC000001537048    0.0800
26     H26     0.2176    2.4008   -1.5075 H        1 ZINC000001537048    0.0800
27     H27     0.2967    2.6209    0.2570 H        1 ZINC000001537048    0.0800
28     H28     2.3578   -1.3647   -1.5379 H        1 ZINC000001537048    0.0600
29     H29     2.7331   -2.7493   -0.4842 H        1 ZINC000001537048    0.0600
30     H30     4.4358   -2.0341   -2.9548 H        1 ZINC000001537048    0.0600
31     H31     4.6672   -3.3461   -1.7744 H        1 ZINC000001537048    0.0500
32     H32     6.3634   -2.8397   -4.2281 H        1 ZINC000001537048    0.0500
33     H33     6.5948   -4.1517   -3.0477 H        1 ZINC000001537048    0.0500
34     H34     5.8960   -4.5709   -5.9879 H        1 ZINC000001537048    0.0800
35     H35     8.5469   -4.8851   -4.5077 H        1 ZINC000001537048    0.0600
36     H36     8.2483   -5.3242   -6.2066 H        1 ZINC000001537048    0.0600
37     H37     8.1678   -3.6196   -5.7006 H        1 ZINC000001537048    0.0600
38     H38     5.1318   -6.3657   -4.4572 H        1 ZINC000001537048    0.0600
39     H39     6.4753   -6.9279   -5.4804 H        1 ZINC000001537048    0.0500
40     H40     6.7739   -6.4887   -3.7815 H        1 ZINC000001537048    0.0500
41     H41     3.4610   -3.0113   -5.3437 H        1 ZINC000001537048    0.0900
42     H42     2.6007   -4.4913   -4.8083 H        1 ZINC000001537048    0.0500
43     H43     1.5211   -2.1689   -6.5004 H        1 ZINC000001537048    0.0700
44     H44     1.3862   -3.9307   -6.8128 H        1 ZINC000001537048    0.0700
45     H45    -0.5938   -2.4365   -5.5256 H        1 ZINC000001537048    0.0700
46     H46    -0.3532   -4.1911   -5.2680 H        1 ZINC000001537048    0.0600
47     H47     0.3410   -3.7902   -3.1234 H        1 ZINC000001537048    0.0500
48     H48     0.0648   -2.0423   -3.3683 H        1 ZINC000001537048    0.0800
49     H49     0.8101   -3.4753    1.3570 H        1 ZINC000001537048    0.0800
50     H50     2.0032   -2.1722    1.1409 H        1 ZINC000001537048    0.0700
51     H51     0.8473   -1.9674    3.3251 H        1 ZINC000001537048    0.0700
52     H52     0.4720   -0.5828    2.2714 H        1 ZINC000001537048    0.0600
53     H53    -1.2805   -3.0518    2.6580 H        1 ZINC000001537048    0.0700
54     H54    -1.5767   -1.4471    3.3688 H        1 ZINC000001537048    0.0700
55     H55    -2.9227   -1.7715    1.3116 H        1 ZINC000001537048    0.0700
56     H56    -1.7295   -0.4684    1.0956 H        1 ZINC000001537048    0.0700
57     H57    -1.7668   -1.9762   -0.8725 H        1 ZINC000001537048    0.0700
58     H58    -1.3915   -3.3609    0.1812 H        1 ZINC000001537048    0.0800
@<TRIPOS>BOND
1     1     2     1
2     1     25    1
3     1     26    1
4     1     27    1
5     2     3     3
6     3     4     1
7     4     24    1
8     4     5     1
9     4     20    1
10    5     6     1
11    6     7     1
12    6     28    1
13    6     29    1
14    7     8     1
15    7     9     1
16    7     15    1
17    9     10    1
18    9     30    1
19    9     31    1
20    10    11    1
21    11    12    1
22    11    32    1
23    11    33    1
24    12    13    1
25    12    14    1
26    12    34    1
27    13    35    1
28    13    36    1
29    13    37    1
30    14    38    1
31    14    39    1
32    14    40    1
33    15    19    1
34    15    16    1
35    16    17    1
36    16    41    1
37    16    42    1
38    17    18    1
39    17    43    1
40    17    44    1
41    18    19    1
42    18    45    1
43    18    46    1
44    19    47    1
45    19    48    1
46    20    21    1
47    20    49    1
48    20    50    1
49    21    22    1
50    21    51    1
51    21    52    1
52    22    23    1
53    22    53    1
54    22    54    1
55    23    24    1
56    23    55    1
57    23    56    1
58    24    57    1
59    24    58    1
@<TRIPOS>SUBSTRUCTURE
1   ZINC000001537048 1     RESIDUE    1   A     ZIN   1
