@<TRIPOS>MOLECULE
ZINC000000001875
29    31    1     0     0
SMALL
USER_CHARGES
@<TRIPOS>ATOM
1      C1     -0.0187    1.5258    0.0104 C.3      1 ZINC000000001875   -0.1800
2      C2      0.0021   -0.0041    0.0020 C.3      1 ZINC000000001875    0.0900
3      N3      0.6878   -0.4765   -1.2033 N.pl3    1 ZINC000000001875   -0.4900
4      C4     -0.0346   -0.6884   -2.3092 C.2      1 ZINC000000001875    0.1600
5      C5      0.5358   -1.1333   -3.4868 C.2      1 ZINC000000001875   -0.3000
6      C6     -0.2897   -1.3537   -4.6786 C.2      1 ZINC000000001875    0.5400
7      O7     -1.4949   -1.1434   -4.6358 O.co2    1 ZINC000000001875   -0.7000
8      O8      0.2263   -1.7479   -5.7163 O.co2    1 ZINC000000001875   -0.6600
9      C9      1.9871   -1.3819   -3.5245 C.2      1 ZINC000000001875    0.4200
10     O10     2.5380   -1.7740   -4.5385 O.2      1 ZINC000000001875   -0.4500
11     C11     2.7449   -1.1363   -2.2855 C.ar     1 ZINC000000001875   -0.1900
12     C12     4.1241   -1.3470   -2.2310 C.ar     1 ZINC000000001875   -0.0100
13     C13     4.8061   -1.1084   -1.0565 C.ar     1 ZINC000000001875   -0.0200
14     C14     4.1188   -0.6565    0.0757 C.ar     1 ZINC000000001875    0.0900
15     C15     2.7528   -0.4450    0.0271 C.ar     1 ZINC000000001875   -0.1700
16     C16     2.0518   -0.6784   -1.1506 C.ar     1 ZINC000000001875    0.2200
17     O17     5.0156   -0.5005    1.0920 O.3      1 ZINC000000001875   -0.3100
18     C18     6.1803   -1.2489    0.6977 C.3      1 ZINC000000001875    0.2100
19     O19     6.1290   -1.2330   -0.7409 O.3      1 ZINC000000001875   -0.3100
20     H20     1.0039    1.9031    0.0027 H        1 ZINC000000001875    0.0600
21     H21    -0.5459    1.8868   -0.8726 H        1 ZINC000000001875    0.0700
22     H22    -0.5289    1.8773    0.9072 H        1 ZINC000000001875    0.0700
23     H23     0.5293   -0.3651    0.8851 H        1 ZINC000000001875    0.0900
24     H24    -1.0205   -0.3814    0.0098 H        1 ZINC000000001875    0.1000
25     H25    -1.0987   -0.5062   -2.2807 H        1 ZINC000000001875    0.1700
26     H26     4.6544   -1.6958   -3.1048 H        1 ZINC000000001875    0.1500
27     H27     2.2298   -0.0962    0.9053 H        1 ZINC000000001875    0.1400
28     H28     7.0875   -0.7607    1.0538 H        1 ZINC000000001875    0.1300
29     H29     6.1228   -2.2712    1.0714 H        1 ZINC000000001875    0.0800
@<TRIPOS>BOND
1     1     2     1
2     1     20    1
3     1     21    1
4     1     22    1
5     2     3     1
6     2     23    1
7     2     24    1
8     3     16    1
9     3     4     1
10    4     5     2
11    4     25    1
12    5     6     1
13    5     9     1
14    6     7     ar
15    6     8     ar
16    9     10    2
17    9     11    1
18    11    16    ar
19    11    12    ar
20    12    13    ar
21    12    26    1
22    13    19    1
23    13    14    ar
24    14    15    ar
25    14    17    1
26    15    16    ar
27    15    27    1
28    17    18    1
29    18    19    1
30    18    28    1
31    18    29    1
@<TRIPOS>SUBSTRUCTURE
1   ZINC000000001875 1     RESIDUE    1   A     ZIN   1
