@<TRIPOS>MOLECULE
ZINC000002560357
  16   17    0    0    0
SMALL
USER_CHARGES
NO_NAME
@<TRIPOS>ATOM
    1 O1        0.0021    -0.0041     0.0020 O.2    1 <0>      -0.5500
    2 C2       -0.0144     1.2113     0.0087 C.2    1 <0>       0.5100
    3 N3       -1.1727     1.8863     0.0290 N.pl3  1 <0>      -0.9600
    4 S4       -0.7586     3.5058     0.0323 S.o2   1 <0>       2.5500
    5 O5       -1.1630     4.0531    -1.2152 O.2    1 <0>      -0.9900
    6 O6       -1.1314     4.0400     1.2952 O.2    1 <0>      -0.9900
    7 C7        1.0071     3.3676     0.0063 C.ar   1 <0>      -0.6300
    8 C8        2.0333     4.2699    -0.0032 C.ar   1 <0>      -0.0200
    9 C9        3.3455     3.8193    -0.0245 C.ar   1 <0>      -0.1300
   10 C10       3.5998     2.4596    -0.0358 C.ar   1 <0>      -0.1000
   11 C11       2.5690     1.5473    -0.0267 C.ar   1 <0>      -0.0700
   12 C12       1.2343     1.9852     0.0009 C.ar   1 <0>      -0.1100
   13 H13       1.8239     5.3293     0.0054 H      1 <0>       0.1300
   14 H14       4.1627     4.5254    -0.0325 H      1 <0>       0.1300
   15 H15       4.6212     2.1089    -0.0523 H      1 <0>       0.1300
   16 H16       2.7874     0.4897    -0.0365 H      1 <0>       0.1300
@<TRIPOS>BOND
   1    1    2 2
   2    2   12 1
   3    2    3 1
   4    3    4 1
   5    4    5 2
   6    4    6 2
   7    4    7 1
   8    7   12 ar
   9    7    8 ar
  10    8    9 ar
  11    8   13 1
  12    9   10 ar
  13    9   14 1
  14   10   11 ar
  15   10   15 1
  16   11   12 ar
  17   11   16 1
