@<TRIPOS>MOLECULE
ZINC000165222140
106   110   1     0     0
SMALL
USER_CHARGES
@<TRIPOS>ATOM
1      C1     -0.0953    0.8680    2.3079 C.3      1 ZINC000165222140   -0.1500
2      C2     -0.1678   -0.6389    2.0531 C.3      1 ZINC000165222140   -0.1200
3      C3     -1.6228   -1.0459    1.8120 C.3      1 ZINC000165222140   -0.1000
4      H4     -2.0379   -0.4475    1.0010 H        1 ZINC000165222140    0.0800
5      C5     -2.4359   -0.8113    3.0867 C.3      1 ZINC000165222140   -0.1500
6      C6     -1.6821   -2.5274    1.4346 C.3      1 ZINC000165222140    0.1200
7      N7     -3.0590   -2.8883    1.0879 N.am     1 ZINC000165222140   -0.7300
8      C8     -3.3525   -4.1515    0.7208 C.2      1 ZINC000165222140    0.5100
9      O9     -2.4767   -4.9894    0.6774 O.2      1 ZINC000165222140   -0.5200
10     C10    -4.7688   -4.5227    0.3641 C.3      1 ZINC000165222140   -0.1800
11     C11    -4.8281   -6.0042   -0.0132 C.3      1 ZINC000165222140    0.1200
12     H12    -4.4130   -6.6026    0.7978 H        1 ZINC000165222140    0.1100
13     O13    -4.0687   -6.2233   -1.2038 O.3      1 ZINC000165222140   -0.5400
14     C14    -6.2831   -6.4113   -0.2543 C.3      1 ZINC000165222140    0.1100
15     H15    -6.8803   -6.1620    0.6228 H        1 ZINC000165222140    0.1000
16     C16    -6.8275   -5.6614   -1.4718 C.3      1 ZINC000165222140   -0.1400
17     C17    -8.3162   -5.9725   -1.6387 C.3      1 ZINC000165222140   -0.0800
18     C18    -9.0906   -5.4171   -0.4418 C.3      1 ZINC000165222140   -0.1400
19     C19    -8.8316   -5.3239   -2.9250 C.3      1 ZINC000165222140   -0.1500
20     N20    -6.3526   -7.8541   -0.4983 N.am     1 ZINC000165222140   -0.7100
21     C21    -7.4918   -8.5269   -0.2416 C.2      1 ZINC000165222140    0.5000
22     O22    -8.4595   -7.9379    0.1914 O.2      1 ZINC000165222140   -0.5000
23     C23    -7.5632  -10.0112   -0.4926 C.3      1 ZINC000165222140    0.1200
24     H24    -6.5955  -10.4634   -0.2755 H        1 ZINC000165222140    0.1300
25     C25    -7.9273  -10.2638   -1.9570 C.3      1 ZINC000165222140   -0.0700
26     C26    -7.8787  -11.7435   -2.2386 C.2      1 ZINC000165222140    0.0400
27     C27    -6.7806  -12.4512   -2.5658 C.2      1 ZINC000165222140    0.0500
28     N28    -7.1812  -13.7494   -2.7326 N.pl3    1 ZINC000165222140   -0.5000
29     C29    -8.5111  -13.7898   -2.5015 C.cat    1 ZINC000165222140    0.3000
30     N30    -8.9205  -12.5875   -2.2017 N.pl3    1 ZINC000165222140   -0.4700
31     H31    -9.8349  -12.3419   -1.9908 H        1 ZINC000165222140    0.4600
32     N32    -8.5848  -10.6044    0.3739 N.am     1 ZINC000165222140   -0.7100
33     C33    -8.3095  -11.7246    1.0709 C.2      1 ZINC000165222140    0.5200
34     O34    -7.1891  -12.1887    1.0550 O.2      1 ZINC000165222140   -0.5300
35     C35    -9.3938  -12.4004    1.8700 C.3      1 ZINC000165222140   -0.0900
36     C36    -9.2335  -13.9184    1.7655 C.3      1 ZINC000165222140   -0.0600
37     C37   -10.3867  -14.5944    2.4615 C.ar     1 ZINC000165222140   -0.0900
38     C38   -11.5929  -14.8167    1.7762 C.ar     1 ZINC000165222140   -0.0400
39     C39   -11.7558  -14.4200    0.4377 C.ar     1 ZINC000165222140   -0.1200
40     C40   -12.9385  -14.6522   -0.1942 C.ar     1 ZINC000165222140   -0.1100
41     C41   -13.9942  -15.2783    0.4662 C.ar     1 ZINC000165222140   -0.1200
42     C42   -13.8732  -15.6757    1.7621 C.ar     1 ZINC000165222140   -0.0900
43     C43   -12.6664  -15.4539    2.4476 C.ar     1 ZINC000165222140   -0.0500
44     C44   -12.5036  -15.8505    3.7856 C.ar     1 ZINC000165222140   -0.1000
45     C45   -11.3201  -15.6195    4.4173 C.ar     1 ZINC000165222140   -0.1100
46     C46   -10.2632  -14.9978    3.7557 C.ar     1 ZINC000165222140   -0.1000
47     C47    -9.2867  -11.9760    3.3361 C.3      1 ZINC000165222140   -0.0700
48     C48    -9.5610  -10.4987    3.4527 C.ar     1 ZINC000165222140   -0.0900
49     C49   -10.8834  -10.0295    3.5240 C.ar     1 ZINC000165222140   -0.0400
50     C50   -11.9748  -10.9144    3.4896 C.ar     1 ZINC000165222140   -0.1100
51     C51   -13.2421  -10.4236    3.5614 C.ar     1 ZINC000165222140   -0.1100
52     C52   -13.4762   -9.0538    3.6683 C.ar     1 ZINC000165222140   -0.1200
53     C53   -12.4445   -8.1672    3.7041 C.ar     1 ZINC000165222140   -0.1000
54     C54   -11.1215   -8.6365    3.6333 C.ar     1 ZINC000165222140   -0.0500
55     C55   -10.0306   -7.7518    3.6679 C.ar     1 ZINC000165222140   -0.0900
56     C56    -8.7629   -8.2427    3.5974 C.ar     1 ZINC000165222140   -0.1000
57     C57    -8.5287   -9.6124    3.4951 C.ar     1 ZINC000165222140   -0.1000
58     H58     0.9413    1.1580    2.4796 H        1 ZINC000165222140    0.0600
59     H59    -0.4830    1.4023    1.4405 H        1 ZINC000165222140    0.0500
60     H60    -0.6924    1.1173    3.1850 H        1 ZINC000165222140    0.0600
61     H61     0.4294   -0.8882    1.1759 H        1 ZINC000165222140    0.0700
62     H62     0.2200   -1.1731    2.9204 H        1 ZINC000165222140    0.0700
63     H63    -3.4725   -1.1013    2.9149 H        1 ZINC000165222140    0.0500
64     H64    -2.0208   -1.4097    3.8977 H        1 ZINC000165222140    0.0600
65     H65    -2.3936    0.2441    3.3555 H        1 ZINC000165222140    0.0600
66     H66    -1.0320   -2.7107    0.5791 H        1 ZINC000165222140    0.0700
67     H67    -1.3500   -3.1311    2.2792 H        1 ZINC000165222140    0.0700
68     H68    -3.7594   -2.2182    1.1226 H        1 ZINC000165222140    0.4000
69     H69    -5.4189   -4.3394    1.2197 H        1 ZINC000165222140    0.1100
70     H70    -5.1009   -3.9190   -0.4805 H        1 ZINC000165222140    0.1000
71     H71    -4.3825   -5.7213   -1.9684 H        1 ZINC000165222140    0.3700
72     H72    -6.6943   -4.5892   -1.3275 H        1 ZINC000165222140    0.0800
73     H73    -6.2879   -5.9777   -2.3645 H        1 ZINC000165222140    0.0700
74     H74    -8.4578   -7.0518   -1.6940 H        1 ZINC000165222140    0.0700
75     H75    -8.9489   -4.3378   -0.3865 H        1 ZINC000165222140    0.0400
76     H76   -10.1512   -5.6388   -0.5607 H        1 ZINC000165222140    0.0500
77     H77    -8.7234   -5.8792    0.4746 H        1 ZINC000165222140    0.0700
78     H78    -8.2799   -5.7195   -3.7778 H        1 ZINC000165222140    0.0500
79     H79    -9.8922   -5.5455   -3.0440 H        1 ZINC000165222140    0.0500
80     H80    -8.6900   -4.2446   -2.8697 H        1 ZINC000165222140    0.0500
81     H81    -5.5786   -8.3253   -0.8446 H        1 ZINC000165222140    0.4100
82     H82    -8.9325   -9.8898   -2.1513 H        1 ZINC000165222140    0.1100
83     H83    -7.2165   -9.7476   -2.6024 H        1 ZINC000165222140    0.1300
84     H84    -5.7769  -12.0680   -2.6757 H        1 ZINC000165222140    0.2300
85     H85    -6.6156  -14.5000   -2.9722 H        1 ZINC000165222140    0.4700
86     H86    -9.1323  -14.6719   -2.5522 H        1 ZINC000165222140    0.2600
87     H87    -9.4593  -10.1909    0.4460 H        1 ZINC000165222140    0.4200
88     H88   -10.3686  -12.1101    1.4780 H        1 ZINC000165222140    0.0900
89     H89    -9.2209  -14.2110    0.7156 H        1 ZINC000165222140    0.0700
90     H90    -8.2980  -14.2183    2.2376 H        1 ZINC000165222140    0.0900
91     H91   -10.9467  -13.9332   -0.0865 H        1 ZINC000165222140    0.1100
92     H92   -13.0610  -14.3464   -1.2227 H        1 ZINC000165222140    0.1200
93     H93   -14.9225  -15.4503   -0.0584 H        1 ZINC000165222140    0.1300
94     H94   -14.7000  -16.1591    2.2612 H        1 ZINC000165222140    0.1300
95     H95   -13.3133  -16.3359    4.3102 H        1 ZINC000165222140    0.1300
96     H96   -11.1977  -15.9251    5.4459 H        1 ZINC000165222140    0.1300
97     H97    -9.3346  -14.8265    4.2799 H        1 ZINC000165222140    0.1300
98     H98   -10.0157  -12.5288    3.9285 H        1 ZINC000165222140    0.0900
99     H99    -8.2830  -12.1893    3.7037 H        1 ZINC000165222140    0.0800
100    H100  -11.8086  -11.9783    3.4063 H        1 ZINC000165222140    0.1200
101    H101  -14.0789  -11.1058    3.5348 H        1 ZINC000165222140    0.1200
102    H102  -14.4918   -8.6906    3.7233 H        1 ZINC000165222140    0.1200
103    H103  -12.6412   -7.1084    3.7865 H        1 ZINC000165222140    0.1300
104    H104  -10.1969   -6.6878    3.7495 H        1 ZINC000165222140    0.1200
105    H105   -7.9261   -7.5605    3.6238 H        1 ZINC000165222140    0.1200
106    H106   -7.5131   -9.9758    3.4411 H        1 ZINC000165222140    0.1100
@<TRIPOS>BOND
1     1     2     1
2     1     58    1
3     1     59    1
4     1     60    1
5     2     3     1
6     2     61    1
7     2     62    1
8     3     4     1
9     3     5     1
10    3     6     1
11    5     63    1
12    5     64    1
13    5     65    1
14    6     7     1
15    6     66    1
16    6     67    1
17    7     8     am
18    7     68    1
19    8     9     2
20    8     10    1
21    10    11    1
22    10    69    1
23    10    70    1
24    11    12    1
25    11    13    1
26    11    14    1
27    13    71    1
28    14    15    1
29    14    16    1
30    14    20    1
31    16    17    1
32    16    72    1
33    16    73    1
34    17    18    1
35    17    19    1
36    17    74    1
37    18    75    1
38    18    76    1
39    18    77    1
40    19    78    1
41    19    79    1
42    19    80    1
43    20    21    am
44    20    81    1
45    21    22    2
46    21    23    1
47    23    24    1
48    23    25    1
49    23    32    1
50    25    26    1
51    25    82    1
52    25    83    1
53    26    30    1
54    26    27    2
55    27    28    1
56    27    84    1
57    28    29    ar
58    28    85    1
59    29    30    ar
60    29    86    1
61    30    31    1
62    32    33    am
63    32    87    1
64    33    34    2
65    33    35    1
66    35    36    1
67    35    47    1
68    35    88    1
69    36    37    1
70    36    89    1
71    36    90    1
72    37    46    ar
73    37    38    ar
74    38    43    ar
75    38    39    ar
76    39    40    ar
77    39    91    1
78    40    41    ar
79    40    92    1
80    41    42    ar
81    41    93    1
82    42    43    ar
83    42    94    1
84    43    44    ar
85    44    45    ar
86    44    95    1
87    45    46    ar
88    45    96    1
89    46    97    1
90    47    48    1
91    47    98    1
92    47    99    1
93    48    57    ar
94    48    49    ar
95    49    54    ar
96    49    50    ar
97    50    51    ar
98    50    100   1
99    51    52    ar
100   51    101   1
101   52    53    ar
102   52    102   1
103   53    54    ar
104   53    103   1
105   54    55    ar
106   55    56    ar
107   55    104   1
108   56    57    ar
109   56    105   1
110   57    106   1
@<TRIPOS>SUBSTRUCTURE
1   ZINC000165222140 1     RESIDUE    1   A     ZIN   1
