@<TRIPOS>MOLECULE
ZINC000059126886
45    46    1     0     0
SMALL
USER_CHARGES
@<TRIPOS>ATOM
1      N1     -0.0116    1.0048    0.0076 N.4      1 ZINC000059126886   -0.6400
2      H2      0.0021   -0.0041    0.0020 H        1 ZINC000059126886    0.4400
3      H3      0.9350    1.3541    0.0004 H        1 ZINC000059126886    0.4400
4      H4     -0.4996    1.3391   -0.8099 H        1 ZINC000059126886    0.4400
5      C5     -0.6992    1.4786    1.2162 C.3      1 ZINC000059126886   -0.0100
6      C6     -0.7199    3.0084    1.2246 C.3      1 ZINC000059126886   -0.1800
7      C7     -1.4361    3.5018    2.4834 C.3      1 ZINC000059126886    0.1600
8      H8     -2.4282    3.0534    2.5364 H        1 ZINC000059126886    0.1200
9      O9     -0.6819    3.1276    3.6381 O.3      1 ZINC000059126886   -0.5500
10     C10    -1.5652    5.0024    2.4323 C.ar     1 ZINC000059126886   -0.1000
11     C11    -0.4871    5.8001    2.7680 C.ar     1 ZINC000059126886   -0.1500
12     C12    -0.6024    7.1775    2.7221 C.ar     1 ZINC000059126886   -0.0700
13     C13    -1.7955    7.7595    2.3407 C.ar     1 ZINC000059126886   -0.2000
14     C14    -2.8789    6.9610    2.0033 C.ar     1 ZINC000059126886    0.1400
15     O15    -4.0537    7.5313    1.6272 O.3      1 ZINC000059126886   -0.3100
16     C16    -4.1028    8.9593    1.6015 C.3      1 ZINC000059126886    0.0600
17     C17    -5.4946    9.4138    1.1575 C.3      1 ZINC000059126886   -0.0800
18     C18    -6.5271    8.9921    2.2049 C.3      1 ZINC000059126886   -0.1100
19     C19    -7.9189    9.4467    1.7610 C.3      1 ZINC000059126886   -0.1200
20     C20    -7.9351   10.9694    1.6131 C.3      1 ZINC000059126886   -0.1200
21     C21    -6.9026   11.3911    0.5657 C.3      1 ZINC000059126886   -0.1200
22     C22    -5.5108   10.9366    1.0096 C.3      1 ZINC000059126886   -0.1100
23     C23    -2.7590    5.5797    2.0446 C.ar     1 ZINC000059126886   -0.1400
24     H24    -1.7218    1.1013    1.2239 H        1 ZINC000059126886    0.1400
25     H25    -0.1720    1.1175    2.0992 H        1 ZINC000059126886    0.1400
26     H26     0.3027    3.3857    1.2169 H        1 ZINC000059126886    0.0900
27     H27    -1.2471    3.3695    0.3415 H        1 ZINC000059126886    0.1000
28     H28     0.2136    3.4919    3.6580 H        1 ZINC000059126886    0.3800
29     H29     0.4465    5.3469    3.0669 H        1 ZINC000059126886    0.1200
30     H30     0.2411    7.7985    2.9852 H        1 ZINC000059126886    0.1300
31     H31    -1.8851    8.8352    2.3054 H        1 ZINC000059126886    0.1300
32     H32    -3.8944    9.3480    2.5982 H        1 ZINC000059126886    0.0700
33     H33    -3.3571    9.3359    0.9014 H        1 ZINC000059126886    0.0600
34     H34    -5.7391    8.9532    0.2003 H        1 ZINC000059126886    0.0800
35     H35    -6.5156    7.9073    2.3103 H        1 ZINC000059126886    0.0700
36     H36    -6.2826    9.4527    3.1621 H        1 ZINC000059126886    0.0600
37     H37    -8.1634    8.9861    0.8038 H        1 ZINC000059126886    0.0600
38     H38    -8.6545    9.1463    2.5072 H        1 ZINC000059126886    0.0600
39     H39    -8.9266   11.2933    1.2968 H        1 ZINC000059126886    0.0600
40     H40    -7.6906   11.4300    2.5703 H        1 ZINC000059126886    0.0600
41     H41    -7.1471   10.9305   -0.3915 H        1 ZINC000059126886    0.0600
42     H42    -6.9141   12.4760    0.4603 H        1 ZINC000059126886    0.0700
43     H43    -5.2663   11.3972    1.9668 H        1 ZINC000059126886    0.0700
44     H44    -4.7752   11.2370    0.2634 H        1 ZINC000059126886    0.0700
45     H45    -3.6009    4.9561    1.7825 H        1 ZINC000059126886    0.1300
@<TRIPOS>BOND
1     1     2     1
2     1     3     1
3     1     4     1
4     1     5     1
5     5     6     1
6     5     24    1
7     5     25    1
8     6     7     1
9     6     26    1
10    6     27    1
11    7     8     1
12    7     9     1
13    7     10    1
14    9     28    1
15    10    23    ar
16    10    11    ar
17    11    12    ar
18    11    29    1
19    12    13    ar
20    12    30    1
21    13    14    ar
22    13    31    1
23    14    15    1
24    14    23    ar
25    15    16    1
26    16    17    1
27    16    32    1
28    16    33    1
29    17    22    1
30    17    18    1
31    17    34    1
32    18    19    1
33    18    35    1
34    18    36    1
35    19    20    1
36    19    37    1
37    19    38    1
38    20    21    1
39    20    39    1
40    20    40    1
41    21    22    1
42    21    41    1
43    21    42    1
44    22    43    1
45    22    44    1
46    23    45    1
@<TRIPOS>SUBSTRUCTURE
1   ZINC000059126886 1     RESIDUE    1   A     ZIN   1
