@<TRIPOS>MOLECULE
ZINC000001529987
  32   31    0    0    0
SMALL
USER_CHARGES
NO_NAME
@<TRIPOS>ATOM
    1 C1       -0.0187     1.5258     0.0104 C.3    1 <0>      -0.1600
    2 C2        0.0021    -0.0041     0.0020 C.3    1 <0>      -0.1200
    3 C3        0.7182    -0.4975    -1.2568 C.3    1 <0>      -0.1100
    4 C4        0.7390    -2.0273    -1.2652 C.3    1 <0>      -0.6000
    5 S5        1.5880    -2.6123    -2.7577 S.o2   1 <0>       2.3000
    6 N6        0.7699    -2.1921    -3.9344 N.am   1 <0>      -1.2100
    7 O7        2.8853    -2.0576    -2.9270 O.2    1 <0>      -0.8800
    8 C8        1.5768    -4.4255    -2.7041 C.3    1 <0>      -0.6400
    9 C9        2.2830    -4.9767    -3.9444 C.3    1 <0>      -0.1100
   10 C10       2.2735    -6.5060    -3.8993 C.3    1 <0>      -0.0400
   11 H11       2.7143    -6.8446    -2.9616 H      1 <0>       0.1400
   12 N12       0.8897    -6.9901    -3.9927 N.4    1 <0>      -0.6100
   13 H13       0.8834    -7.9986    -3.9630 H      1 <0>       0.4300
   14 H14       0.3535    -6.6274    -3.2187 H      1 <0>       0.4100
   15 H15       0.4817    -6.6767    -4.8607 H      1 <0>       0.4300
   16 C16       3.0743    -7.0477    -5.0553 C.2    1 <0>       0.4900
   17 O17       4.2866    -6.9184    -5.0708 O.co2  1 <0>      -0.6300
   18 O18       2.5100    -7.6153    -5.9750 O.co2  1 <0>      -0.6700
   19 H19       1.0039     1.9031     0.0027 H      1 <0>       0.0600
   20 H20      -0.5459     1.8868    -0.8726 H      1 <0>       0.0600
   21 H21      -0.5289     1.8773     0.9072 H      1 <0>       0.0600
   22 H22       0.5293    -0.3651     0.8851 H      1 <0>       0.0600
   23 H23      -1.0205    -0.3814     0.0098 H      1 <0>       0.0600
   24 H24       0.1910    -0.1364    -2.1398 H      1 <0>       0.0800
   25 H25       1.7408    -0.1202    -1.2645 H      1 <0>       0.0800
   26 H26       1.2661    -2.3884    -0.3821 H      1 <0>       0.1200
   27 H27      -0.2836    -2.4046    -1.2575 H      1 <0>       0.1300
   28 H28      -0.1560    -2.4724    -4.0063 H      1 <0>       0.3800
   29 H29       2.0967    -4.7658    -1.8086 H      1 <0>       0.1300
   30 H30       0.5469    -4.7820    -2.6839 H      1 <0>       0.1200
   31 H31       1.7631    -4.6364    -4.8399 H      1 <0>       0.1000
   32 H32       3.3129    -4.6202    -3.9646 H      1 <0>       0.1200
@<TRIPOS>BOND
   1    1    2 1
   2    1   19 1
   3    1   20 1
   4    1   21 1
   5    2    3 1
   6    2   22 1
   7    2   23 1
   8    3    4 1
   9    3   24 1
  10    3   25 1
  11    4    5 1
  12    4   26 1
  13    4   27 1
  14    5    6 2
  15    5    7 2
  16    5    8 1
  17    6   28 1
  18    8    9 1
  19    8   29 1
  20    8   30 1
  21    9   10 1
  22    9   31 1
  23    9   32 1
  24   10   11 1
  25   10   12 1
  26   10   16 1
  27   12   13 1
  28   12   14 1
  29   12   15 1
  30   16   17 ar
  31   16   18 ar
