@<TRIPOS>MOLECULE
ZINC000014945742
  45   47    0    0    0
SMALL
USER_CHARGES
NO_NAME
@<TRIPOS>ATOM
    1 C1       -0.0187     1.5258     0.0104 C.3    1 <0>      -0.1700
    2 C2        0.0021    -0.0041     0.0020 C.3    1 <0>       0.1700
    3 C3        0.7421    -0.5109     1.2415 C.3    1 <0>      -0.1700
    4 C4       -1.4333    -0.5336     0.0129 C.3    1 <0>      -0.1600
    5 N5        0.6878    -0.4765    -1.2033 N.pl3  1 <0>      -0.6800
    6 C6        2.0006    -0.1244    -1.4321 C.ar   1 <0>       0.4900
    7 C7        2.6806    -0.5657    -2.5943 C.ar   1 <0>      -0.1800
    8 C8        2.0604    -1.3700    -3.5542 C.ar   1 <0>      -0.0600
    9 C9        2.7773    -1.7692    -4.6699 C.ar   1 <0>      -0.0400
   10 C10       2.1286    -2.6227    -5.6954 C.ar   1 <0>       0.0000
   11 C11       0.8007    -3.0162    -5.5387 C.ar   1 <0>      -0.1700
   12 C12       0.1981    -3.8107    -6.4939 C.ar   1 <0>      -0.0700
   13 C13       0.9077    -4.2183    -7.6073 C.ar   1 <0>      -0.1900
   14 C14       2.2326    -3.8310    -7.7718 C.ar   1 <0>       0.2200
   15 N15       2.9468    -4.2450    -8.8987 N.pl3  1 <0>      -0.8800
   16 C16       2.8430    -3.0281    -6.8200 C.ar   1 <0>      -0.1900
   17 C17       4.1122    -1.3720    -4.8376 C.ar   1 <0>      -0.0600
   18 C18       4.7300    -0.5896    -3.9122 C.ar   1 <0>      -0.0900
   19 C19       4.0293    -0.1692    -2.7721 C.ar   1 <0>       0.1900
   20 N20       4.6011     0.6024    -1.8361 N.ar   1 <0>      -0.5100
   21 C21       3.9224     0.9813    -0.7791 C.ar   1 <0>       0.2900
   22 C22       4.6097     1.8485     0.2440 C.3    1 <0>       0.5500
   23 F23       5.7839     2.3754    -0.3045 F      1 <0>      -0.1600
   24 F24       3.7585     2.8945     0.6161 F      1 <0>      -0.1600
   25 F25       4.9248     1.0806     1.3701 F      1 <0>      -0.1600
   26 N26       2.6603     0.6412    -0.5731 N.ar   1 <0>      -0.5600
   27 H27       1.0039     1.9031     0.0027 H      1 <0>       0.0800
   28 H28      -0.5459     1.8868    -0.8726 H      1 <0>       0.0500
   29 H29      -0.5289     1.8773     0.9072 H      1 <0>       0.0700
   30 H30       0.2319    -0.1594     2.1383 H      1 <0>       0.0700
   31 H31       0.7568    -1.6008     1.2356 H      1 <0>       0.0500
   32 H32       1.7647    -0.1336     1.2338 H      1 <0>       0.0800
   33 H33      -1.9605    -0.1726    -0.8702 H      1 <0>       0.0600
   34 H34      -1.4185    -1.6235     0.0069 H      1 <0>       0.0600
   35 H35      -1.9435    -0.1821     0.9097 H      1 <0>       0.0800
   36 H36       0.2179    -1.0371    -1.8404 H      1 <0>       0.4100
   37 H37       1.0329    -1.6773    -3.4271 H      1 <0>       0.1300
   38 H38       0.2429    -2.7000    -4.6696 H      1 <0>       0.1200
   39 H39      -0.8308    -4.1147    -6.3702 H      1 <0>       0.1300
   40 H40       0.4318    -4.8396    -8.3515 H      1 <0>       0.1200
   41 H41       2.5182    -4.8028    -9.5666 H      1 <0>       0.4000
   42 H42       3.8713    -3.9747    -9.0133 H      1 <0>       0.4000
   43 H43       3.8723    -2.7260    -6.9457 H      1 <0>       0.1300
   44 H44       4.6570    -1.6921    -5.7135 H      1 <0>       0.1400
   45 H45       5.7584    -0.2926    -4.0549 H      1 <0>       0.1500
@<TRIPOS>BOND
   1    1    2 1
   2    1   27 1
   3    1   28 1
   4    1   29 1
   5    2    3 1
   6    2    4 1
   7    2    5 1
   8    3   30 1
   9    3   31 1
  10    3   32 1
  11    4   33 1
  12    4   34 1
  13    4   35 1
  14    5    6 1
  15    5   36 1
  16    6   26 ar
  17    6    7 ar
  18    7   19 ar
  19    7    8 ar
  20    8    9 ar
  21    8   37 1
  22    9   10 1
  23    9   17 ar
  24   10   16 ar
  25   10   11 ar
  26   11   12 ar
  27   11   38 1
  28   12   13 ar
  29   12   39 1
  30   13   14 ar
  31   13   40 1
  32   14   15 1
  33   14   16 ar
  34   15   41 1
  35   15   42 1
  36   16   43 1
  37   17   18 ar
  38   17   44 1
  39   18   19 ar
  40   18   45 1
  41   19   20 ar
  42   20   21 ar
  43   21   22 1
  44   21   26 ar
  45   22   23 1
  46   22   24 1
  47   22   25 1
