@<TRIPOS>MOLECULE
ZINC000038269036
56    59    1     0     0
SMALL
USER_CHARGES
@<TRIPOS>ATOM
1      C1     -2.3713   -0.6664    1.4520 C.3      1 ZINC000038269036   -0.1100
2      C2     -1.1250   -1.0483    0.6959 C.2      1 ZINC000038269036    0.4100
3      N3     -1.2477   -1.8038   -0.3530 N.2      1 ZINC000038269036   -0.5100
4      C4     -0.1708   -2.1878   -1.0828 C.ar     1 ZINC000038269036    0.1600
5      C5     -0.3023   -2.9997   -2.2109 C.ar     1 ZINC000038269036   -0.0800
6      C6      0.8185   -3.3650   -2.9226 C.ar     1 ZINC000038269036   -0.0700
7      C7      2.0802   -2.9363   -2.5324 C.ar     1 ZINC000038269036   -0.0900
8      C8      2.2358   -2.1348   -1.4224 C.ar     1 ZINC000038269036   -0.1100
9      C9      3.6087   -1.6738   -1.0056 C.3      1 ZINC000038269036    0.5100
10     F10     4.5616   -2.1840   -1.8938 F        1 ZINC000038269036   -0.1800
11     F11     3.6564   -0.2757   -1.0230 F        1 ZINC000038269036   -0.1700
12     F12     3.8826   -2.1337    0.2869 F        1 ZINC000038269036   -0.1700
13     C13     1.1147   -1.7529   -0.6889 C.ar     1 ZINC000038269036   -0.1600
14     C14     1.2195   -0.8994    0.5034 C.2      1 ZINC000038269036    0.5400
15     O15     2.2971   -0.4916    0.8963 O.2      1 ZINC000038269036   -0.4800
16     N16     0.0708   -0.5795    1.1437 N.am     1 ZINC000038269036   -0.5000
17     C17     0.1150    0.2322    2.2858 C.ar     1 ZINC000038269036    0.0800
18     C18    -0.0400    1.6070    2.1672 C.ar     1 ZINC000038269036   -0.0500
19     C19     0.0037    2.4059    3.2924 C.ar     1 ZINC000038269036   -0.1300
20     C20     0.2029    1.8354    4.5413 C.ar     1 ZINC000038269036    0.1400
21     O21     0.2463    2.6226    5.6488 O.3      1 ZINC000038269036   -0.3100
22     C22     0.4547    1.9683    6.9020 C.3      1 ZINC000038269036    0.0600
23     C23     0.4735    3.0088    8.0236 C.3      1 ZINC000038269036   -0.1500
24     C24     0.6966    2.3083    9.3654 C.3      1 ZINC000038269036    0.0000
25     N25     0.7147    3.3073   10.4423 N.4      1 ZINC000038269036   -0.3900
26     H26     1.3950    4.0246   10.2405 H        1 ZINC000038269036    0.4300
27     C27    -0.6330    3.9104   10.6041 C.3      1 ZINC000038269036   -0.0100
28     C28    -0.6022    4.4641   12.0508 C.3      1 ZINC000038269036   -0.1500
29     C29     0.2058    3.3902   12.8149 C.3      1 ZINC000038269036   -0.1500
30     C30     1.0256    2.6586   11.7346 C.3      1 ZINC000038269036   -0.0100
31     C31     0.3575    0.4617    4.6604 C.ar     1 ZINC000038269036   -0.2000
32     C32     0.3083   -0.3388    3.5366 C.ar     1 ZINC000038269036   -0.0500
33     H33    -2.7995    0.2357    1.0148 H        1 ZINC000038269036    0.1000
34     H34    -3.0959   -1.4785    1.3919 H        1 ZINC000038269036    0.1100
35     H35    -2.1201   -0.4801    2.4962 H        1 ZINC000038269036    0.0900
36     H36    -1.2784   -3.3399   -2.5237 H        1 ZINC000038269036    0.1500
37     H37     0.7149   -3.9932   -3.7950 H        1 ZINC000038269036    0.1500
38     H38     2.9471   -3.2340   -3.1036 H        1 ZINC000038269036    0.1500
39     H39    -0.1944    2.0513    1.1950 H        1 ZINC000038269036    0.1400
40     H40    -0.1169    3.4752    3.2003 H        1 ZINC000038269036    0.1400
41     H41    -0.3524    1.2574    7.0794 H        1 ZINC000038269036    0.0800
42     H42     1.4072    1.4388    6.8815 H        1 ZINC000038269036    0.0800
43     H43     1.2806    3.7196    7.8462 H        1 ZINC000038269036    0.1000
44     H44    -0.4790    3.5382    8.0441 H        1 ZINC000038269036    0.1000
45     H45    -0.1105    1.5974    9.5428 H        1 ZINC000038269036    0.1300
46     H46     1.6492    1.7788    9.3449 H        1 ZINC000038269036    0.1300
47     H47    -0.7821    4.7171    9.8865 H        1 ZINC000038269036    0.1400
48     H48    -1.4090    3.1521   10.4989 H        1 ZINC000038269036    0.1300
49     H49    -0.0924    5.4270   12.0845 H        1 ZINC000038269036    0.1000
50     H50    -1.6116    4.5466   12.4538 H        1 ZINC000038269036    0.1200
51     H51     0.8709    3.8611   13.5389 H        1 ZINC000038269036    0.1100
52     H52    -0.4679    2.6947   13.3153 H        1 ZINC000038269036    0.1000
53     H53     0.7394    1.6074   11.6997 H        1 ZINC000038269036    0.1300
54     H54     2.0900    2.7494   11.9511 H        1 ZINC000038269036    0.1300
55     H55     0.5125    0.0182    5.6329 H        1 ZINC000038269036    0.1400
56     H56     0.4283   -1.4081    3.6295 H        1 ZINC000038269036    0.1300
@<TRIPOS>BOND
1     1     2     1
2     1     33    1
3     1     34    1
4     1     35    1
5     2     16    1
6     2     3     2
7     3     4     1
8     4     13    ar
9     4     5     ar
10    5     6     ar
11    5     36    1
12    6     7     ar
13    6     37    1
14    7     8     ar
15    7     38    1
16    8     9     1
17    8     13    ar
18    9     10    1
19    9     11    1
20    9     12    1
21    13    14    1
22    14    15    2
23    14    16    am
24    16    17    1
25    17    32    ar
26    17    18    ar
27    18    19    ar
28    18    39    1
29    19    20    ar
30    19    40    1
31    20    21    1
32    20    31    ar
33    21    22    1
34    22    23    1
35    22    41    1
36    22    42    1
37    23    24    1
38    23    43    1
39    23    44    1
40    24    25    1
41    24    45    1
42    24    46    1
43    25    26    1
44    25    30    1
45    25    27    1
46    27    28    1
47    27    47    1
48    27    48    1
49    28    29    1
50    28    49    1
51    28    50    1
52    29    30    1
53    29    51    1
54    29    52    1
55    30    53    1
56    30    54    1
57    31    32    ar
58    31    55    1
59    32    56    1
@<TRIPOS>SUBSTRUCTURE
1   ZINC000038269036 1     RESIDUE    1   A     ZIN   1
