@<TRIPOS>MOLECULE
ZINC000072266998
46    49    1     0     0
SMALL
USER_CHARGES
@<TRIPOS>ATOM
1      C1      2.0235   -5.7145   -5.7225 C.3      1 ZINC000072266998   -0.6700
2      S2      2.6819   -6.0033   -7.3879 S.o2     1 ZINC000072266998    2.6100
3      O3      3.8837   -6.7589   -7.3248 O.2      1 ZINC000072266998   -0.9500
4      O4      1.6372   -6.3619   -8.2819 O.2      1 ZINC000072266998   -0.9500
5      N5      3.1669   -4.5070   -7.9057 N.am     1 ZINC000072266998   -1.0500
6      C6      4.2159   -3.8476   -7.2553 C.ar     1 ZINC000072266998    0.1200
7      C7      4.0969   -2.5061   -6.9342 C.ar     1 ZINC000072266998   -0.0600
8      C8      5.1448   -1.8569   -6.2871 C.ar     1 ZINC000072266998   -0.1100
9      C9      6.3162   -2.5560   -5.9611 C.ar     1 ZINC000072266998    0.0900
10     C10     6.4189   -3.9026   -6.2904 C.ar     1 ZINC000072266998   -0.0900
11     C11     5.3769   -4.5420   -6.9261 C.ar     1 ZINC000072266998   -0.1000
12     O12     7.1652   -1.7028   -5.3461 O.3      1 ZINC000072266998   -0.1800
13     C13     6.6312   -0.4653   -5.2389 C.ar     1 ZINC000072266998    0.0700
14     C14     5.3560   -0.4799   -5.8098 C.ar     1 ZINC000072266998   -0.0300
15     C15     4.5771    0.6911   -5.8300 C.ar     1 ZINC000072266998   -0.1100
16     C16     3.2327    0.6772   -6.4310 C.2      1 ZINC000072266998    0.5800
17     O17     2.5253   -0.3055   -6.3160 O.2      1 ZINC000072266998   -0.5000
18     N18     2.7862    1.7534   -7.1084 N.am     1 ZINC000072266998   -0.6800
19     C19     1.4764    1.7811   -7.5894 C.ar     1 ZINC000072266998    0.2000
20     C20     1.1735    1.3126   -8.8676 C.ar     1 ZINC000072266998   -0.0800
21     Cl21    2.4241    0.6820   -9.8933 Cl       1 ZINC000072266998   -0.0300
22     C22    -0.1351    1.3571   -9.3057 C.ar     1 ZINC000072266998    0.1300
23     N23    -1.0917    1.8345   -8.5321 N.ar     1 ZINC000072266998   -0.4500
24     C24    -0.8458    2.2869   -7.3170 C.ar     1 ZINC000072266998    0.1300
25     C25     0.4352    2.2726   -6.8022 C.ar     1 ZINC000072266998   -0.0800
26     Cl26    0.7476    2.8697   -5.2023 Cl       1 ZINC000072266998   -0.0300
27     C27     5.0872    1.8661   -5.2760 C.ar     1 ZINC000072266998   -0.0600
28     C28     6.3471    1.8738   -4.7138 C.ar     1 ZINC000072266998   -0.1700
29     C29     7.1197    0.7226   -4.6909 C.ar     1 ZINC000072266998    0.1500
30     O30     8.3570    0.7504   -4.1327 O.3      1 ZINC000072266998   -0.3100
31     C31     8.7960    1.9972   -3.5898 C.3      1 ZINC000072266998    0.4100
32     F32     8.8179    2.9641   -4.6007 F        1 ZINC000072266998   -0.1900
33     F33     7.9179    2.4003   -2.5780 F        1 ZINC000072266998   -0.1900
34     H34     2.8071   -5.2989   -5.0890 H        1 ZINC000072266998    0.1300
35     H35     1.1908   -5.0133   -5.7776 H        1 ZINC000072266998    0.1300
36     H36     1.6769   -6.6577   -5.3002 H        1 ZINC000072266998    0.1300
37     H37     2.7239   -4.0877   -8.6599 H        1 ZINC000072266998    0.4300
38     H38     3.1959   -1.9659   -7.1848 H        1 ZINC000072266998    0.1600
39     H39     7.3166   -4.4503   -6.0438 H        1 ZINC000072266998    0.1500
40     H40     5.4647   -5.5884   -7.1785 H        1 ZINC000072266998    0.1800
41     H41     3.3752    2.5087   -7.2616 H        1 ZINC000072266998    0.4200
42     H42    -0.3789    0.9968  -10.2942 H        1 ZINC000072266998    0.1800
43     H43    -1.6576    2.6695   -6.7162 H        1 ZINC000072266998    0.1800
44     H44     4.4957    2.7696   -5.2878 H        1 ZINC000072266998    0.1500
45     H45     6.7360    2.7865   -4.2872 H        1 ZINC000072266998    0.1600
46     H46     9.7978    1.8810   -3.1765 H        1 ZINC000072266998    0.1900
@<TRIPOS>BOND
1     1     2     1
2     1     34    1
3     1     35    1
4     1     36    1
5     2     3     2
6     2     4     2
7     2     5     am
8     5     6     1
9     5     37    1
10    6     11    ar
11    6     7     ar
12    7     8     ar
13    7     38    1
14    8     14    1
15    8     9     ar
16    9     10    ar
17    9     12    1
18    10    11    ar
19    10    39    1
20    11    40    1
21    12    13    1
22    13    29    ar
23    13    14    ar
24    14    15    ar
25    15    16    1
26    15    27    ar
27    16    17    2
28    16    18    am
29    18    19    1
30    18    41    1
31    19    25    ar
32    19    20    ar
33    20    21    1
34    20    22    ar
35    22    23    ar
36    22    42    1
37    23    24    ar
38    24    25    ar
39    24    43    1
40    25    26    1
41    27    28    ar
42    27    44    1
43    28    29    ar
44    28    45    1
45    29    30    1
46    30    31    1
47    31    32    1
48    31    33    1
49    31    46    1
@<TRIPOS>SUBSTRUCTURE
1   ZINC000072266998 1     RESIDUE    1   A     ZIN   1
