@<TRIPOS>MOLECULE
ZINC000003814435
  63   70    0    0    0
SMALL
USER_CHARGES
NO_NAME
@<TRIPOS>ATOM
    1 C1        0.8647     1.0270     0.6037 C.3    1 <0>      -0.0500
    2 N2        0.0218     0.0037    -0.0290 N.4    1 <0>      -0.5200
    3 H3       -0.1042    -0.7690     0.6076 H      1 <0>       0.4300
    4 H4       -0.8769     0.4019    -0.2567 H      1 <0>       0.4200
    5 C5        0.6708    -0.4746    -1.2570 C.3    1 <0>      -0.0100
    6 H6        1.6207     0.0416    -1.3963 H      1 <0>       0.1600
    7 C7       -0.2418    -0.2131    -2.4605 C.3    1 <0>      -0.1800
    8 C8       -1.5610    -0.9494    -2.2650 C.3    1 <0>       0.3000
    9 H9       -2.0874    -0.9224    -3.2191 H      1 <0>       0.1600
   10 O10      -1.3792    -2.3066    -1.9293 O.3    1 <0>      -0.3200
   11 C11      -0.4275    -2.6866    -0.9616 C.3    1 <0>       0.3300
   12 C12      -0.1551    -4.1791    -1.1597 C.3    1 <0>      -0.1700
   13 C13       0.9118    -1.9853    -1.1607 C.3    1 <0>       0.0400
   14 H14       1.3859    -2.3579    -2.0687 H      1 <0>       0.1400
   15 O15       1.7581    -2.2467    -0.0394 O.3    1 <0>      -0.3600
   16 C16       3.1521    -2.2591    -0.3536 C.3    1 <0>       0.0200
   17 N17      -0.9217    -2.5180     0.4059 N.pl3  1 <0>      -0.5100
   18 C18      -0.5688    -3.2761     1.4968 C.ar   1 <0>       0.1500
   19 C19      -1.2604    -2.7932     2.6299 C.ar   1 <0>      -0.1000
   20 C20      -1.0960    -3.3739     3.8872 C.ar   1 <0>      -0.0400
   21 C21      -0.2237    -4.4467     3.9703 C.ar   1 <0>      -0.1400
   22 C22       0.4536    -4.9230     2.8619 C.ar   1 <0>      -0.0700
   23 C23       0.3043    -4.3579     1.6065 C.ar   1 <0>      -0.1300
   24 C24      -2.0838    -1.6725     2.1727 C.ar   1 <0>      -0.0200
   25 C25      -1.8369    -1.5521     0.7964 C.ar   1 <0>       0.0800
   26 C26      -2.4877    -0.5603     0.0529 C.ar   1 <0>       0.0600
   27 C27      -3.3836     0.3086     0.6787 C.ar   1 <0>       0.0100
   28 C28      -3.8821     1.1972    -0.3667 C.ar   1 <0>      -0.1100
   29 C29      -4.8007     2.2481    -0.3361 C.ar   1 <0>      -0.0300
   30 C30      -5.0493     2.8949    -1.5350 C.ar   1 <0>      -0.1400
   31 C31      -4.4200     2.5219    -2.7097 C.ar   1 <0>      -0.0600
   32 C32      -3.5074     1.4815    -2.7605 C.ar   1 <0>      -0.1400
   33 C33      -3.2403     0.8121    -1.5670 C.ar   1 <0>       0.1300
   34 N34      -2.4014    -0.2523    -1.2904 N.pl3  1 <0>      -0.5400
   35 C35      -3.6230     0.1893     2.0682 C.ar   1 <0>      -0.1100
   36 C36      -2.9701    -0.7996     2.7962 C.ar   1 <0>      -0.0300
   37 C37      -3.4360    -0.6573     4.2245 C.3    1 <0>       0.3500
   38 H38      -3.9351    -1.5705     4.5488 H      1 <0>       0.1100
   39 O39      -2.3252    -0.3751     5.0781 O.3    1 <0>      -0.5500
   40 N40      -4.3807     0.4653     4.2357 N.am   1 <0>      -0.7300
   41 C41      -4.4855     0.9489     2.9862 C.2    1 <0>       0.5700
   42 O42      -5.1930     1.8830     2.6606 O.2    1 <0>      -0.5000
   43 H43       1.8355     0.5968     0.8497 H      1 <0>       0.1300
   44 H44       1.0008     1.8616    -0.0840 H      1 <0>       0.1200
   45 H45       0.3831     1.3818     1.5149 H      1 <0>       0.1300
   46 H46      -0.4319     0.8568    -2.5468 H      1 <0>       0.1200
   47 H47       0.2431    -0.5707    -3.3689 H      1 <0>       0.1500
   48 H48      -0.1700    -4.4130    -2.2241 H      1 <0>       0.1000
   49 H49       0.8224    -4.4279    -0.7466 H      1 <0>       0.1000
   50 H50      -0.9237    -4.7595    -0.6493 H      1 <0>       0.0900
   51 H51       3.7264    -2.4641     0.5499 H      1 <0>       0.1100
   52 H52       3.3507    -3.0340    -1.0940 H      1 <0>       0.0600
   53 H53       3.4424    -1.2888    -0.7564 H      1 <0>       0.0500
   54 H54      -1.6232    -3.0046     4.7545 H      1 <0>       0.1400
   55 H55      -0.0683    -4.9247     4.9263 H      1 <0>       0.1300
   56 H56       1.1218    -5.7633     2.9798 H      1 <0>       0.1300
   57 H57       0.8393    -4.7394     0.7494 H      1 <0>       0.1400
   58 H58      -5.2939     2.5422     0.5786 H      1 <0>       0.1600
   59 H59      -5.7542     3.7129    -1.5538 H      1 <0>       0.1400
   60 H60      -4.6486     3.0602    -3.6176 H      1 <0>       0.1400
   61 H61      -3.0236     1.2009    -3.6844 H      1 <0>       0.1400
   62 H62      -2.5615    -0.2726     6.0102 H      1 <0>       0.4000
   63 H63      -4.8508     0.8021     5.0144 H      1 <0>       0.4300
@<TRIPOS>BOND
   1    1    2 1
   2    1   43 1
   3    1   44 1
   4    1   45 1
   5    2    3 1
   6    2    4 1
   7    2    5 1
   8    5    6 1
   9    5   13 1
  10    5    7 1
  11    7    8 1
  12    7   46 1
  13    7   47 1
  14    8    9 1
  15    8   34 1
  16    8   10 1
  17   10   11 1
  18   11   12 1
  19   11   13 1
  20   11   17 1
  21   12   48 1
  22   12   49 1
  23   12   50 1
  24   13   14 1
  25   13   15 1
  26   15   16 1
  27   16   51 1
  28   16   52 1
  29   16   53 1
  30   17   25 1
  31   17   18 1
  32   18   23 ar
  33   18   19 ar
  34   19   20 ar
  35   19   24 1
  36   20   21 ar
  37   20   54 1
  38   21   22 ar
  39   21   55 1
  40   22   23 ar
  41   22   56 1
  42   23   57 1
  43   24   36 ar
  44   24   25 ar
  45   25   26 ar
  46   26   34 1
  47   26   27 ar
  48   27   28 1
  49   27   35 ar
  50   28   33 ar
  51   28   29 ar
  52   29   30 ar
  53   29   58 1
  54   30   31 ar
  55   30   59 1
  56   31   32 ar
  57   31   60 1
  58   32   33 ar
  59   32   61 1
  60   33   34 1
  61   35   41 1
  62   35   36 ar
  63   36   37 1
  64   37   38 1
  65   37   39 1
  66   37   40 1
  67   39   62 1
  68   40   41 am
  69   40   63 1
  70   41   42 2
