@<TRIPOS>MOLECULE
ZINC000003947695
66    72    1     0     0
SMALL
USER_CHARGES
@<TRIPOS>ATOM
1      O1      0.2007   -0.0255    0.0722 O.2      1 ZINC000003947695   -0.4600
2      C2      0.2188    1.1897    0.1025 C.2      1 ZINC000003947695    0.5600
3      N3      1.3959    1.8458    0.1214 N.am     1 ZINC000003947695   -0.6600
4      C4      2.5894    1.1330    0.2132 C.ar     1 ZINC000003947695    0.3600
5      C5      3.7927    1.8177    0.3384 C.ar     1 ZINC000003947695   -0.2100
6      C6      4.9709    1.0973    0.4286 C.ar     1 ZINC000003947695   -0.0500
7      C7      4.9043   -0.2886    0.3903 C.ar     1 ZINC000003947695   -0.2100
8      C8      3.6738   -0.9032    0.2643 C.ar     1 ZINC000003947695    0.1300
9      N9      2.5667   -0.1905    0.1858 N.ar     1 ZINC000003947695   -0.4800
10     C10    -1.0486    1.9468    0.1124 C.ar     1 ZINC000003947695   -0.1500
11     C11    -1.0253    3.3474    0.1414 C.ar     1 ZINC000003947695   -0.0700
12     C12    -2.1901    4.0590    0.1508 C.ar     1 ZINC000003947695   -0.1100
13     C13    -3.4128    3.3981    0.1311 C.ar     1 ZINC000003947695    0.0800
14     N14    -4.7248    3.8223    0.1338 N.pl3    1 ZINC000003947695   -0.5900
15     C15    -5.5144    2.7035    0.1066 C.2      1 ZINC000003947695    0.3400
16     C16    -6.9922    2.7065    0.0989 C.ar     1 ZINC000003947695   -0.0500
17     C17    -7.6896    3.9162    0.1144 C.ar     1 ZINC000003947695   -0.0800
18     C18    -9.0671    3.9156    0.1072 C.ar     1 ZINC000003947695   -0.1200
19     C19    -9.7633    2.7121    0.0850 C.ar     1 ZINC000003947695    0.1700
20     N20   -11.1599    2.7149    0.0783 N.am     1 ZINC000003947695   -0.6700
21     C21   -11.8286    3.6812   -0.5817 C.2      1 ZINC000003947695    0.5300
22     O22   -11.2208    4.5942   -1.0992 O.2      1 ZINC000003947695   -0.5100
23     C23   -13.3317    3.6271   -0.6765 C.3      1 ZINC000003947695   -0.0700
24     C24   -13.9328    3.6562    0.7302 C.3      1 ZINC000003947695   -0.1000
25     C25   -15.4588    3.6014    0.6339 C.3      1 ZINC000003947695   -0.0800
26     C26   -15.8791    2.3117   -0.0737 C.3      1 ZINC000003947695   -0.1100
27     C27   -15.2780    2.2825   -1.4804 C.3      1 ZINC000003947695   -0.0800
28     C28   -15.7825    3.4883   -2.2757 C.3      1 ZINC000003947695   -0.1100
29     C29   -15.3622    4.7781   -1.5680 C.3      1 ZINC000003947695   -0.0900
30     C30   -15.9633    4.8072   -0.1614 C.3      1 ZINC000003947695   -0.1100
31     C31   -13.8362    4.8329   -1.4718 C.3      1 ZINC000003947695   -0.0900
32     C32   -13.7520    2.3374   -1.3841 C.3      1 ZINC000003947695   -0.1000
33     C33    -9.0718    1.5057    0.0691 C.ar     1 ZINC000003947695   -0.1500
34     C34    -7.6942    1.4997    0.0703 C.ar     1 ZINC000003947695   -0.0500
35     N35    -4.7629    1.6300    0.0876 N.2      1 ZINC000003947695   -0.4700
36     C36    -3.4556    1.9908    0.1014 C.ar     1 ZINC000003947695    0.0400
37     C37    -2.2630    1.2673    0.0870 C.ar     1 ZINC000003947695    0.0100
38     H38     1.4121    2.8144    0.0711 H        1 ZINC000003947695    0.4200
39     H39     3.8080    2.8973    0.3645 H        1 ZINC000003947695    0.1400
40     H40     5.9207    1.6020    0.5263 H        1 ZINC000003947695    0.1400
41     H41     5.8053   -0.8802    0.4580 H        1 ZINC000003947695    0.1400
42     H42     3.6171   -1.9812    0.2337 H        1 ZINC000003947695    0.1600
43     H43    -0.0790    3.8677    0.1568 H        1 ZINC000003947695    0.1300
44     H44    -2.1617    5.1384    0.1740 H        1 ZINC000003947695    0.1300
45     H45    -5.0316    4.7423    0.1521 H        1 ZINC000003947695    0.4300
46     H46    -7.1495    4.8513    0.1324 H        1 ZINC000003947695    0.1200
47     H47    -9.6071    4.8509    0.1192 H        1 ZINC000003947695    0.1500
48     H48   -11.6485    2.0214    0.5485 H        1 ZINC000003947695    0.4100
49     H49   -13.5734    2.7972    1.2967 H        1 ZINC000003947695    0.0700
50     H50   -13.6333    4.5751    1.2343 H        1 ZINC000003947695    0.0700
51     H51   -15.8870    3.6221    1.6360 H        1 ZINC000003947695    0.0800
52     H52   -15.5197    1.4526    0.4928 H        1 ZINC000003947695    0.0600
53     H53   -16.9663    2.2726   -0.1423 H        1 ZINC000003947695    0.0700
54     H54   -15.5775    1.3637   -1.9845 H        1 ZINC000003947695    0.0800
55     H55   -15.3543    3.4676   -3.2778 H        1 ZINC000003947695    0.0600
56     H56   -16.8697    3.4492   -2.3443 H        1 ZINC000003947695    0.0700
57     H57   -15.7216    5.6371   -2.1346 H        1 ZINC000003947695    0.0800
58     H58   -17.0504    4.7681   -0.2299 H        1 ZINC000003947695    0.0700
59     H59   -15.6638    5.7260    0.3428 H        1 ZINC000003947695    0.0600
60     H60   -13.5367    5.7517   -0.9676 H        1 ZINC000003947695    0.0700
61     H61   -13.4079    4.8122   -2.4739 H        1 ZINC000003947695    0.0700
62     H62   -13.3238    2.3166   -2.3863 H        1 ZINC000003947695    0.0700
63     H63   -13.3926    1.4784   -0.8176 H        1 ZINC000003947695    0.0700
64     H64    -9.6153    0.5726    0.0518 H        1 ZINC000003947695    0.1400
65     H65    -7.1577    0.5624    0.0579 H        1 ZINC000003947695    0.1500
66     H66    -2.2819    0.1879    0.0585 H        1 ZINC000003947695    0.1500
@<TRIPOS>BOND
1     1     2     2
2     2     3     am
3     2     10    1
4     3     4     1
5     3     38    1
6     4     9     ar
7     4     5     ar
8     5     6     ar
9     5     39    1
10    6     7     ar
11    6     40    1
12    7     8     ar
13    7     41    1
14    8     9     ar
15    8     42    1
16    10    37    ar
17    10    11    ar
18    11    12    ar
19    11    43    1
20    12    13    ar
21    12    44    1
22    13    36    ar
23    13    14    1
24    14    15    1
25    14    45    1
26    15    16    1
27    15    35    2
28    16    34    ar
29    16    17    ar
30    17    18    ar
31    17    46    1
32    18    19    ar
33    18    47    1
34    19    20    1
35    19    33    ar
36    20    21    am
37    20    48    1
38    21    22    2
39    21    23    1
40    23    31    1
41    23    32    1
42    23    24    1
43    24    25    1
44    24    49    1
45    24    50    1
46    25    30    1
47    25    26    1
48    25    51    1
49    26    27    1
50    26    52    1
51    26    53    1
52    27    28    1
53    27    32    1
54    27    54    1
55    28    29    1
56    28    55    1
57    28    56    1
58    29    30    1
59    29    31    1
60    29    57    1
61    30    58    1
62    30    59    1
63    31    60    1
64    31    61    1
65    32    62    1
66    32    63    1
67    33    34    ar
68    33    64    1
69    34    65    1
70    35    36    1
71    36    37    ar
72    37    66    1
@<TRIPOS>SUBSTRUCTURE
1   ZINC000003947695 1     RESIDUE    1   A     ZIN   1
