@<TRIPOS>MOLECULE
ZINC000066156654
53    56    1     0     0
SMALL
USER_CHARGES
@<TRIPOS>ATOM
1      C1     -0.0184    1.5028    0.0103 C.3      1 ZINC000066156654   -0.1300
2      C2      0.0021   -0.0041    0.0020 C.ar     1 ZINC000066156654   -0.0700
3      C3      0.0058   -0.6851   -1.1946 C.ar     1 ZINC000066156654   -0.0500
4      C4      0.0252   -2.0824   -1.2013 C.ar     1 ZINC000066156654   -0.1200
5      C5      0.0297   -2.8161   -2.4824 C.2      1 ZINC000066156654    0.5600
6      N6      0.0484   -4.1638   -2.4871 N.am     1 ZINC000066156654   -0.8500
7      O7      0.0165   -2.2047   -3.5332 O.2      1 ZINC000066156654   -0.5300
8      C8      0.0408   -2.7834    0.0071 C.ar     1 ZINC000066156654   -0.0800
9      C9      0.0370   -2.0957    1.2003 C.ar     1 ZINC000066156654   -0.1100
10     C10     0.0230   -0.7051    1.2032 C.ar     1 ZINC000066156654    0.1300
11     N11     0.0192   -0.0107    2.4157 N.pl3    1 ZINC000066156654   -0.4000
12     C12    -1.0919    0.3700    3.1139 C.2      1 ZINC000066156654    0.1000
13     C13    -2.5196    0.1116    2.7066 C.3      1 ZINC000066156654   -0.0400
14     C14    -3.0647    1.3296    1.9580 C.3      1 ZINC000066156654   -0.1800
15     C15    -4.4925    1.0712    1.5507 C.2      1 ZINC000066156654    0.4900
16     O16    -5.0246    0.0112    1.8329 O.co2    1 ZINC000066156654   -0.7000
17     O17    -5.1154    1.9222    0.9388 O.co2    1 ZINC000066156654   -0.7000
18     C18    -0.6945    1.0161    4.2308 C.2      1 ZINC000066156654   -0.2100
19     C19     0.7106    1.0419    4.2340 C.2      1 ZINC000066156654   -0.1300
20     C20     1.1324    0.3990    3.1094 C.2      1 ZINC000066156654    0.0000
21     C21     2.5377    0.1876    2.7032 C.ar     1 ZINC000066156654    0.0600
22     C22     2.8291   -0.3938    1.4677 C.ar     1 ZINC000066156654   -0.1200
23     C23     4.1408   -0.5889    1.0920 C.ar     1 ZINC000066156654   -0.0800
24     C24     5.1725   -0.2083    1.9413 C.ar     1 ZINC000066156654    0.0400
25     N25     6.5053   -0.4088    1.5560 N.pl3    1 ZINC000066156654   -0.3300
26     C26     6.9390   -0.9591    0.3776 C.2      1 ZINC000066156654    0.0200
27     C27     8.2849   -0.9624    0.4207 C.2      1 ZINC000066156654    0.0100
28     N28     8.6678   -0.4301    1.5908 N.pl3    1 ZINC000066156654   -0.4700
29     H29     9.5862   -0.3125    1.8797 H        1 ZINC000066156654    0.4700
30     C30     7.6111   -0.0891    2.2771 C.cat    1 ZINC000066156654    0.2700
31     C31     4.8863    0.3710    3.1714 C.ar     1 ZINC000066156654   -0.0900
32     C32     3.5771    0.5741    3.5515 C.ar     1 ZINC000066156654   -0.0900
33     H33     1.0042    1.8801    0.0026 H        1 ZINC000066156654    0.0700
34     H34    -0.5455    1.8639   -0.8728 H        1 ZINC000066156654    0.0800
35     H35    -0.5286    1.8543    0.9071 H        1 ZINC000066156654    0.0800
36     H36    -0.0067   -0.1401   -2.1269 H        1 ZINC000066156654    0.1500
37     H37     0.0589   -4.6516   -1.6488 H        1 ZINC000066156654    0.4000
38     H38     0.0514   -4.6458   -3.3288 H        1 ZINC000066156654    0.4100
39     H39     0.0555   -3.8633    0.0055 H        1 ZINC000066156654    0.1400
40     H40     0.0487   -2.6369    2.1348 H        1 ZINC000066156654    0.1400
41     H41    -2.5594   -0.7623    2.0564 H        1 ZINC000066156654    0.0700
42     H42    -3.1240   -0.0690    3.5955 H        1 ZINC000066156654    0.0900
43     H43    -3.0249    2.2035    2.6082 H        1 ZINC000066156654    0.0600
44     H44    -2.4603    1.5102    1.0691 H        1 ZINC000066156654    0.0600
45     H45    -1.3407    1.4379    4.9863 H        1 ZINC000066156654    0.1500
46     H46     1.3402    1.4859    4.9909 H        1 ZINC000066156654    0.1400
47     H47     2.0277   -0.6905    0.8073 H        1 ZINC000066156654    0.1500
48     H48     4.3669   -1.0386    0.1364 H        1 ZINC000066156654    0.1400
49     H49     6.3200   -1.3208   -0.4302 H        1 ZINC000066156654    0.2200
50     H50     8.9425   -1.3305   -0.3529 H        1 ZINC000066156654    0.2300
51     H51     7.6153    0.3645    3.2572 H        1 ZINC000066156654    0.2600
52     H52     5.6908    0.6656    3.8290 H        1 ZINC000066156654    0.1400
53     H53     3.3555    1.0247    4.5076 H        1 ZINC000066156654    0.1500
@<TRIPOS>BOND
1     1     2     1
2     1     33    1
3     1     34    1
4     1     35    1
5     2     10    ar
6     2     3     ar
7     3     4     ar
8     3     36    1
9     4     5     1
10    4     8     ar
11    5     6     am
12    5     7     2
13    6     37    1
14    6     38    1
15    8     9     ar
16    8     39    1
17    9     10    ar
18    9     40    1
19    10    11    1
20    11    20    1
21    11    12    1
22    12    13    1
23    12    18    2
24    13    14    1
25    13    41    1
26    13    42    1
27    14    15    1
28    14    43    1
29    14    44    1
30    15    16    ar
31    15    17    ar
32    18    19    1
33    18    45    1
34    19    20    2
35    19    46    1
36    20    21    1
37    21    32    ar
38    21    22    ar
39    22    23    ar
40    22    47    1
41    23    24    ar
42    23    48    1
43    24    25    1
44    24    31    ar
45    25    30    ar
46    25    26    1
47    26    27    2
48    26    49    1
49    27    28    1
50    27    50    1
51    28    29    1
52    28    30    ar
53    30    51    1
54    31    32    ar
55    31    52    1
56    32    53    1
@<TRIPOS>SUBSTRUCTURE
1   ZINC000066156654 1     RESIDUE    1   A     ZIN   1
