@<TRIPOS>MOLECULE
ZINC000095577747
64    68    1     0     0
SMALL
USER_CHARGES
@<TRIPOS>ATOM
1      O1     -4.7534   -1.8098    1.5988 O.3      1 ZINC000095577747   -0.5500
2      C2     -3.5079   -1.1102    1.5651 C.3      1 ZINC000095577747    0.1100
3      C3     -2.6589   -1.6321    0.4042 C.3      1 ZINC000095577747    0.0100
4      N4     -3.2771   -1.2403   -0.8695 N.4      1 ZINC000095577747   -0.3800
5      H5     -3.3135   -0.2337   -0.9289 H        1 ZINC000095577747    0.4200
6      C6     -4.6394   -1.7825   -0.9377 C.3      1 ZINC000095577747   -0.0200
7      C7     -5.3166   -1.3100   -2.2259 C.3      1 ZINC000095577747   -0.1400
8      C8     -4.5090   -1.8014   -3.4307 C.3      1 ZINC000095577747   -0.1000
9      C9     -5.1358   -1.2660   -4.7196 C.3      1 ZINC000095577747    0.0600
10     O10    -4.4527   -1.8184   -5.8467 O.3      1 ZINC000095577747   -0.2700
11     C11    -4.8877   -1.4428   -7.0749 C.2      1 ZINC000095577747    0.3300
12     N12    -5.8661   -0.6211   -7.3299 N.2      1 ZINC000095577747   -0.3500
13     O13    -6.0173   -0.4816   -8.7282 O.3      1 ZINC000095577747   -0.0700
14     C14    -5.0994   -1.2443   -9.3571 C.ar     1 ZINC000095577747    0.1400
15     C15    -4.8092   -1.4748  -10.6959 C.ar     1 ZINC000095577747   -0.1600
16     C16    -3.7844   -2.3297  -11.0436 C.ar     1 ZINC000095577747    0.0000
17     C17    -3.0343   -2.9670  -10.0684 C.ar     1 ZINC000095577747   -0.2500
18     C18    -3.3057   -2.7528   -8.7290 C.ar     1 ZINC000095577747    0.2200
19     O19    -2.5699   -3.3777   -7.7743 O.3      1 ZINC000095577747   -0.2900
20     C20    -1.6081   -4.3359   -8.2202 C.3      1 ZINC000095577747    0.0500
21     H21    -1.9986   -4.9019   -9.0659 H        1 ZINC000095577747    0.1000
22     C22    -1.2167   -5.2889   -7.0647 C.3      1 ZINC000095577747   -0.1500
23     C23     0.3120   -5.4390   -7.2712 C.3      1 ZINC000095577747    0.0500
24     O24     0.7247   -4.1236   -7.7000 O.3      1 ZINC000095577747   -0.3700
25     C25    -0.2883   -3.6379   -8.6016 C.3      1 ZINC000095577747    0.0200
26     C26    -4.3393   -1.8817   -8.3642 C.ar     1 ZINC000095577747   -0.2200
27     C27    -3.0701   -1.2912   -3.3106 C.3      1 ZINC000095577747   -0.1400
28     C28    -2.4771   -1.7660   -1.9822 C.3      1 ZINC000095577747   -0.0100
29     C29    -3.7667    0.3882    1.3799 C.3      1 ZINC000095577747   -0.2000
30     C30    -4.5500    0.9156    2.5848 C.3      1 ZINC000095577747    0.0600
31     O31    -3.8145    0.6528    3.7815 O.3      1 ZINC000095577747   -0.3700
32     C32    -3.5836   -0.7352    4.0315 C.3      1 ZINC000095577747    0.0500
33     C33    -2.7614   -1.3289    2.8847 C.3      1 ZINC000095577747   -0.1800
34     H34    -5.3442   -1.5272    2.3103 H        1 ZINC000095577747    0.4000
35     H35    -1.6568   -1.2079    0.4674 H        1 ZINC000095577747    0.1400
36     H36    -2.5974   -2.7190    0.4590 H        1 ZINC000095577747    0.1400
37     H37    -4.5973   -2.8717   -0.9283 H        1 ZINC000095577747    0.1300
38     H38    -5.2120   -1.4345   -0.0780 H        1 ZINC000095577747    0.1700
39     H39    -6.3273   -1.7151   -2.2755 H        1 ZINC000095577747    0.1200
40     H40    -5.3595   -0.2208   -2.2362 H        1 ZINC000095577747    0.0900
41     H41    -4.5101   -2.8912   -3.4502 H        1 ZINC000095577747    0.1000
42     H42    -6.1875   -1.5497   -4.7573 H        1 ZINC000095577747    0.0800
43     H43    -5.0516   -0.1794   -4.7405 H        1 ZINC000095577747    0.0800
44     H44    -5.3870   -0.9843  -11.4653 H        1 ZINC000095577747    0.1500
45     H45    -3.5646   -2.5045  -12.0865 H        1 ZINC000095577747    0.1500
46     H46    -2.2347   -3.6339  -10.3552 H        1 ZINC000095577747    0.1400
47     H47    -1.4361   -4.8376   -6.0971 H        1 ZINC000095577747    0.0900
48     H48    -1.7193   -6.2507   -7.1666 H        1 ZINC000095577747    0.1000
49     H49     0.8012   -5.7087   -6.3352 H        1 ZINC000095577747    0.1000
50     H50     0.5243   -6.1785   -8.0434 H        1 ZINC000095577747    0.0700
51     H51    -0.0189   -3.8837   -9.6288 H        1 ZINC000095577747    0.0800
52     H52    -0.3950   -2.5586   -8.4925 H        1 ZINC000095577747    0.1000
53     H53    -2.4750   -1.6829   -4.1355 H        1 ZINC000095577747    0.1200
54     H54    -3.0663   -0.2017   -3.3434 H        1 ZINC000095577747    0.0900
55     H55    -1.4524   -1.4051   -1.8926 H        1 ZINC000095577747    0.1300
56     H56    -2.4816   -2.8555   -1.9515 H        1 ZINC000095577747    0.1300
57     H57    -2.8157    0.9155    1.3045 H        1 ZINC000095577747    0.1000
58     H58    -4.3459    0.5481    0.4705 H        1 ZINC000095577747    0.0800
59     H59    -4.6999    1.9900    2.4789 H        1 ZINC000095577747    0.1100
60     H60    -5.5177    0.4166    2.6359 H        1 ZINC000095577747    0.0600
61     H61    -3.0374   -0.8499    4.9677 H        1 ZINC000095577747    0.1100
62     H62    -4.5387   -1.2557    4.1015 H        1 ZINC000095577747    0.0600
63     H63    -2.6218   -2.3970    3.0515 H        1 ZINC000095577747    0.1000
64     H64    -1.7901   -0.8363    2.8397 H        1 ZINC000095577747    0.1000
@<TRIPOS>BOND
1     1     2     1
2     1     34    1
3     2     33    1
4     2     3     1
5     2     29    1
6     3     4     1
7     3     35    1
8     3     36    1
9     4     5     1
10    4     28    1
11    4     6     1
12    6     7     1
13    6     37    1
14    6     38    1
15    7     8     1
16    7     39    1
17    7     40    1
18    8     9     1
19    8     27    1
20    8     41    1
21    9     10    1
22    9     42    1
23    9     43    1
24    10    11    1
25    11    26    1
26    11    12    2
27    12    13    1
28    13    14    1
29    14    26    ar
30    14    15    ar
31    15    16    ar
32    15    44    1
33    16    17    ar
34    16    45    1
35    17    18    ar
36    17    46    1
37    18    19    1
38    18    26    ar
39    19    20    1
40    20    21    1
41    20    25    1
42    20    22    1
43    22    23    1
44    22    47    1
45    22    48    1
46    23    24    1
47    23    49    1
48    23    50    1
49    24    25    1
50    25    51    1
51    25    52    1
52    27    28    1
53    27    53    1
54    27    54    1
55    28    55    1
56    28    56    1
57    29    30    1
58    29    57    1
59    29    58    1
60    30    31    1
61    30    59    1
62    30    60    1
63    31    32    1
64    32    33    1
65    32    61    1
66    32    62    1
67    33    63    1
68    33    64    1
@<TRIPOS>SUBSTRUCTURE
1   ZINC000095577747 1     RESIDUE    1   A     ZIN   1
