@<TRIPOS>MOLECULE
ZINC000003936686
96    100   1     0     0
SMALL
USER_CHARGES
@<TRIPOS>ATOM
1      C1     -1.2000   -2.2418    0.4957 C.2      1 ZINC000003936686   -0.2200
2      C2     -1.1937   -3.4032   -0.1101 C.2      1 ZINC000003936686   -0.0900
3      C3      0.0977   -4.1640   -0.2675 C.3      1 ZINC000003936686   -0.1200
4      C4     -2.4795   -3.9794   -0.6505 C.3      1 ZINC000003936686   -0.0500
5      H5     -3.3110   -3.3133   -0.4428 H        1 ZINC000003936686    0.0700
6      C6     -2.7220   -5.3760   -0.0178 C.3      1 ZINC000003936686   -0.1000
7      C7     -2.6368   -6.3863   -1.1977 C.3      1 ZINC000003936686   -0.1000
8      C8     -3.1762   -5.5300   -2.3591 C.3      1 ZINC000003936686   -0.1300
9      C9     -4.6516   -5.3022   -2.1471 C.2      1 ZINC000003936686    0.5100
10     O10    -5.2128   -5.7979   -1.1850 O.co2    1 ZINC000003936686   -0.7000
11     O11    -5.2832   -4.6224   -2.9379 O.co2    1 ZINC000003936686   -0.6800
12     C12    -2.9116   -6.0582   -3.7492 C.3      1 ZINC000003936686   -0.0800
13     C13    -3.3572   -5.0031   -4.7734 C.3      1 ZINC000003936686   -0.1000
14     C14    -2.7013   -3.6474   -4.5349 C.3      1 ZINC000003936686   -0.0100
15     C15    -1.2079   -3.8130   -4.8437 C.3      1 ZINC000003936686   -0.1500
16     C16    -2.8747   -3.1702   -3.0874 C.3      1 ZINC000003936686   -0.0600
17     H17    -3.9349   -2.9991   -2.8675 H        1 ZINC000003936686    0.1000
18     C18    -2.1566   -1.8357   -2.8797 C.3      1 ZINC000003936686   -0.1100
19     C19    -2.7297   -0.7836   -3.8385 C.3      1 ZINC000003936686   -0.1100
20     C20    -2.5683   -1.2719   -5.2749 C.3      1 ZINC000003936686   -0.0600
21     H21    -1.4783   -1.4463   -5.4213 H        1 ZINC000003936686    0.0600
22     C22    -2.9099   -0.1793   -6.2896 C.3      1 ZINC000003936686   -0.0400
23     C23    -4.2946    0.4007   -6.0374 C.3      1 ZINC000003936686   -0.1500
24     C24    -1.8836    0.9582   -6.1186 C.3      1 ZINC000003936686   -0.1100
25     C25    -2.1532    2.0431   -7.1568 C.3      1 ZINC000003936686   -0.1300
26     C26    -1.9796    1.4947   -8.5656 C.3      1 ZINC000003936686    0.1000
27     H27    -0.9251    1.2424   -8.7259 H        1 ZINC000003936686    0.0800
28     O28    -2.3510    2.5225   -9.5298 O.3      1 ZINC000003936686   -0.3500
29     C29    -1.3774    3.3467   -9.9474 C.2      1 ZINC000003936686    0.4600
30     O30    -0.2531    3.2169   -9.5243 O.2      1 ZINC000003936686   -0.5100
31     C31    -1.6866    4.4340  -10.9440 C.3      1 ZINC000003936686   -0.0800
32     C32    -0.4122    5.2239  -11.2488 C.3      1 ZINC000003936686   -0.1200
33     C33     0.1200    5.8509   -9.9586 C.3      1 ZINC000003936686   -0.1300
34     C34     0.6439    4.2828  -11.8319 C.3      1 ZINC000003936686   -0.1300
35     C35    -0.7213    6.3112  -12.2454 C.2      1 ZINC000003936686    0.5100
36     O36    -0.0829    7.3498  -12.2321 O.co2    1 ZINC000003936686   -0.6900
37     O37    -1.6098    6.1522  -13.0650 O.co2    1 ZINC000003936686   -0.7000
38     C38    -2.8257    0.2482   -8.8236 C.3      1 ZINC000003936686   -0.0400
39     C39    -4.2626    0.6490   -9.1556 C.3      1 ZINC000003936686   -0.1400
40     C40    -2.2390   -0.4170  -10.0945 C.3      1 ZINC000003936686   -0.1500
41     C41    -2.7399   -0.7495   -7.6916 C.3      1 ZINC000003936686   -0.0500
42     H42    -1.6959   -1.1604   -7.7202 H        1 ZINC000003936686    0.0600
43     C43    -3.6524   -1.9573   -7.8849 C.3      1 ZINC000003936686   -0.1100
44     C44    -3.1747   -3.0648   -6.9313 C.3      1 ZINC000003936686   -0.1100
45     C45    -3.2957   -2.5900   -5.4837 C.3      1 ZINC000003936686   -0.0300
46     C46    -4.7922   -2.4682   -5.1536 C.3      1 ZINC000003936686   -0.1400
47     C47    -2.3514   -4.2337   -2.1528 C.3      1 ZINC000003936686   -0.0500
48     H48    -1.2965   -4.4400   -2.3634 H        1 ZINC000003936686    0.0500
49     H49    -0.2797   -1.8295    0.8825 H        1 ZINC000003936686    0.0900
50     H50    -2.1247   -1.6945    0.6046 H        1 ZINC000003936686    0.0900
51     H51     0.2418   -4.8171    0.5932 H        1 ZINC000003936686    0.0600
52     H52     0.0573   -4.7643   -1.1764 H        1 ZINC000003936686    0.0700
53     H53     0.9279   -3.4608   -0.3331 H        1 ZINC000003936686    0.0600
54     H54    -1.9434   -5.5920    0.7134 H        1 ZINC000003936686    0.0400
55     H55    -3.7004   -5.4161    0.4524 H        1 ZINC000003936686    0.0800
56     H56    -1.6100   -6.6839   -1.3840 H        1 ZINC000003936686    0.0400
57     H57    -3.2810   -7.2432   -1.0241 H        1 ZINC000003936686    0.0600
58     H58    -1.8529   -6.2864   -3.8727 H        1 ZINC000003936686    0.0400
59     H59    -3.4857   -6.9785   -3.9063 H        1 ZINC000003936686    0.0400
60     H60    -3.0525   -5.3549   -5.7696 H        1 ZINC000003936686    0.0300
61     H61    -4.4372   -4.9295   -4.7684 H        1 ZINC000003936686    0.1000
62     H62    -1.0837   -4.1244   -5.8809 H        1 ZINC000003936686    0.0500
63     H63    -0.6968   -2.8633   -4.6858 H        1 ZINC000003936686    0.0500
64     H64    -0.7821   -4.5689   -4.1839 H        1 ZINC000003936686    0.0500
65     H65    -2.3372   -1.4923   -1.8549 H        1 ZINC000003936686    0.0500
66     H66    -1.0884   -1.9347   -3.0318 H        1 ZINC000003936686    0.0500
67     H67    -3.7695   -0.6023   -3.5898 H        1 ZINC000003936686    0.0600
68     H68    -2.1655    0.1448   -3.7053 H        1 ZINC000003936686    0.0500
69     H69    -4.3927    0.6624   -4.9838 H        1 ZINC000003936686    0.0500
70     H70    -4.4312    1.2935   -6.6477 H        1 ZINC000003936686    0.0600
71     H71    -5.0515   -0.3383   -6.3002 H        1 ZINC000003936686    0.0700
72     H72    -1.9775    1.3756   -5.1186 H        1 ZINC000003936686    0.0700
73     H73    -0.8834    0.5528   -6.2587 H        1 ZINC000003936686    0.0600
74     H74    -3.1407    2.4766   -7.0316 H        1 ZINC000003936686    0.0800
75     H75    -1.4213    2.8530   -7.0066 H        1 ZINC000003936686    0.0600
76     H76    -2.0657    3.9873  -11.8632 H        1 ZINC000003936686    0.1000
77     H77    -2.4390    5.1044  -10.5286 H        1 ZINC000003936686    0.0900
78     H78     0.3436    5.0645   -9.2378 H        1 ZINC000003936686    0.0600
79     H79     1.0279    6.4136  -10.1757 H        1 ZINC000003936686    0.0500
80     H80    -0.6324    6.5213   -9.5432 H        1 ZINC000003936686    0.0400
81     H81     0.2648    3.8361  -12.7510 H        1 ZINC000003936686    0.0400
82     H82     1.5519    4.8456  -12.0490 H        1 ZINC000003936686    0.0500
83     H83     0.8676    3.4964  -11.1110 H        1 ZINC000003936686    0.0700
84     H84    -4.2817    1.1758  -10.1096 H        1 ZINC000003936686    0.0600
85     H85    -4.8831   -0.2448   -9.2215 H        1 ZINC000003936686    0.0500
86     H86    -4.6479    1.3018   -8.3723 H        1 ZINC000003936686    0.0600
87     H87    -1.1961   -0.6805   -9.9182 H        1 ZINC000003936686    0.0500
88     H88    -2.8068   -1.3175  -10.3283 H        1 ZINC000003936686    0.0600
89     H89    -2.3014    0.2793  -10.9308 H        1 ZINC000003936686    0.0600
90     H90    -4.6867   -1.7117   -7.6873 H        1 ZINC000003936686    0.0700
91     H91    -3.5688   -2.3367   -8.9059 H        1 ZINC000003936686    0.0500
92     H92    -3.7988   -3.9474   -7.0794 H        1 ZINC000003936686    0.0600
93     H93    -2.1428   -3.3039   -7.1787 H        1 ZINC000003936686    0.0600
94     H94    -5.2405   -3.4614   -5.1276 H        1 ZINC000003936686    0.0700
95     H95    -4.9122   -1.9899   -4.1816 H        1 ZINC000003936686    0.0600
96     H96    -5.2851   -1.8670   -5.9177 H        1 ZINC000003936686    0.0400
@<TRIPOS>BOND
1     1     2     2
2     1     49    1
3     1     50    1
4     2     3     1
5     2     4     1
6     3     51    1
7     3     52    1
8     3     53    1
9     4     5     1
10    4     47    1
11    4     6     1
12    6     7     1
13    6     54    1
14    6     55    1
15    7     8     1
16    7     56    1
17    7     57    1
18    8     47    1
19    8     9     1
20    8     12    1
21    9     10    ar
22    9     11    ar
23    12    13    1
24    12    58    1
25    12    59    1
26    13    14    1
27    13    60    1
28    13    61    1
29    14    45    1
30    14    15    1
31    14    16    1
32    15    62    1
33    15    63    1
34    15    64    1
35    16    17    1
36    16    18    1
37    16    47    1
38    18    19    1
39    18    65    1
40    18    66    1
41    19    20    1
42    19    67    1
43    19    68    1
44    20    21    1
45    20    45    1
46    20    22    1
47    22    41    1
48    22    23    1
49    22    24    1
50    23    69    1
51    23    70    1
52    23    71    1
53    24    25    1
54    24    72    1
55    24    73    1
56    25    26    1
57    25    74    1
58    25    75    1
59    26    27    1
60    26    28    1
61    26    38    1
62    28    29    1
63    29    30    2
64    29    31    1
65    31    32    1
66    31    76    1
67    31    77    1
68    32    33    1
69    32    34    1
70    32    35    1
71    33    78    1
72    33    79    1
73    33    80    1
74    34    81    1
75    34    82    1
76    34    83    1
77    35    36    ar
78    35    37    ar
79    38    39    1
80    38    40    1
81    38    41    1
82    39    84    1
83    39    85    1
84    39    86    1
85    40    87    1
86    40    88    1
87    40    89    1
88    41    42    1
89    41    43    1
90    43    44    1
91    43    90    1
92    43    91    1
93    44    45    1
94    44    92    1
95    44    93    1
96    45    46    1
97    46    94    1
98    46    95    1
99    46    96    1
100   47    48    1
@<TRIPOS>SUBSTRUCTURE
1   ZINC000003936686 1     RESIDUE    1   A     ZIN   1
