@<TRIPOS>MOLECULE
ZINC000003775185
  42   44    0    0    0
SMALL
USER_CHARGES
NO_NAME
@<TRIPOS>ATOM
    1 O1        0.0021    -0.0041     0.0020 O.2    1 <0>      -0.5300
    2 C2       -0.0145     1.2164     0.0087 C.2    1 <0>       0.4800
    3 C3       -1.2421     1.9130     0.0301 C.2    1 <0>      -0.1800
    4 C4       -1.2000     3.2783     0.0367 C.2    1 <0>      -0.0700
    5 C5        0.0564     3.9063     0.0219 C.2    1 <0>       0.0500
    6 N6        1.1502     3.1965     0.0020 N.2    1 <0>      -0.2300
    7 N7        1.1383     1.9126     0.0015 N.am   1 <0>      -0.3600
    8 C8        2.4107     1.1868    -0.0217 C.3    1 <0>       0.1200
    9 C9        2.8278     0.9349    -1.4720 C.3    1 <0>      -0.1700
   10 C10       4.1566     0.1769    -1.4961 C.3    1 <0>       0.0000
   11 N11       4.5572    -0.0650    -2.8886 N.4    1 <0>      -0.5100
   12 H12       3.8484    -0.6137    -3.3520 H      1 <0>       0.4300
   13 H13       4.6647     0.8176    -3.3658 H      1 <0>       0.4400
   14 C14       5.8330    -0.7928    -2.9118 C.3    1 <0>       0.0100
   15 C15       6.2501    -1.0447    -4.3622 C.3    1 <0>       0.0200
   16 H16       5.4485    -1.5603    -4.8909 H      1 <0>       0.1100
   17 C17       7.5241    -1.8998    -4.3931 C.3    1 <0>       0.0300
   18 O18       7.8935    -2.1044    -5.7612 O.3    1 <0>      -0.2900
   19 C19       7.8779    -1.0092    -6.5691 C.ar   1 <0>       0.0500
   20 C20       8.5541    -1.0463    -7.7791 C.ar   1 <0>      -0.1100
   21 C21       8.5446     0.0570    -8.6119 C.ar   1 <0>      -0.1000
   22 C22       7.8608     1.1995    -8.2414 C.ar   1 <0>      -0.1100
   23 C23       7.1859     1.2437    -7.0358 C.ar   1 <0>      -0.1100
   24 C24       7.1931     0.1412    -6.1948 C.ar   1 <0>       0.0400
   25 O25       6.5301     0.2023    -5.0075 O.3    1 <0>      -0.3200
   26 H26      -2.1835     1.3839     0.0405 H      1 <0>       0.1700
   27 H27      -2.1097     3.8602     0.0525 H      1 <0>       0.1600
   28 H28       0.1170     4.9846     0.0267 H      1 <0>       0.1900
   29 H29       3.1763     1.7796     0.4789 H      1 <0>       0.1100
   30 H30       2.2945     0.2334     0.4938 H      1 <0>       0.1100
   31 H31       2.0622     0.3421    -1.9725 H      1 <0>       0.1000
   32 H32       2.9440     1.8883    -1.9875 H      1 <0>       0.1000
   33 H33       4.9222     0.7697    -0.9956 H      1 <0>       0.1400
   34 H34       4.0405    -0.7765    -0.9807 H      1 <0>       0.1400
   35 H35       6.5986    -0.2000    -2.4113 H      1 <0>       0.1500
   36 H36       5.7168    -1.7461    -2.3964 H      1 <0>       0.1600
   37 H37       8.3273    -1.3818    -3.8690 H      1 <0>       0.0900
   38 H38       7.3332    -2.8611    -3.9161 H      1 <0>       0.1300
   39 H39       9.0890    -1.9380    -8.0710 H      1 <0>       0.1400
   40 H40       9.0721     0.0260    -9.5538 H      1 <0>       0.1400
   41 H41       7.8541     2.0595    -8.8947 H      1 <0>       0.1400
   42 H42       6.6523     2.1377    -6.7487 H      1 <0>       0.1400
@<TRIPOS>BOND
   1    1    2 2
   2    2    7 am
   3    2    3 1
   4    3    4 2
   5    3   26 1
   6    4    5 1
   7    4   27 1
   8    5    6 2
   9    5   28 1
  10    6    7 1
  11    7    8 1
  12    8    9 1
  13    8   29 1
  14    8   30 1
  15    9   10 1
  16    9   31 1
  17    9   32 1
  18   10   11 1
  19   10   33 1
  20   10   34 1
  21   11   12 1
  22   11   13 1
  23   11   14 1
  24   14   15 1
  25   14   35 1
  26   14   36 1
  27   15   16 1
  28   15   25 1
  29   15   17 1
  30   17   18 1
  31   17   37 1
  32   17   38 1
  33   18   19 1
  34   19   24 ar
  35   19   20 ar
  36   20   21 ar
  37   20   39 1
  38   21   22 ar
  39   21   40 1
  40   22   23 ar
  41   22   41 1
  42   23   24 ar
  43   23   42 1
  44   24   25 1
