@<TRIPOS>MOLECULE
ZINC000001529772
  40   42    0    0    0
SMALL
USER_CHARGES
NO_NAME
@<TRIPOS>ATOM
    1 O1        0.0228    -0.0036    -0.0031 O.2    1 <0>      -0.5500
    2 C2       -0.0144     1.2136     0.0087 C.2    1 <0>       0.5500
    3 C3        1.1892     1.9585     0.0070 C.2    1 <0>      -0.2300
    4 C4        2.3838     1.3188     0.0941 C.2    1 <0>      -0.0100
    5 C5        3.5831     2.0611     0.0924 C.2    1 <0>      -0.1400
    6 C6        4.7742     1.4231     0.1793 C.2    1 <0>      -0.0600
    7 C7        6.0232     2.1962     0.1775 C.ar   1 <0>      -0.0600
    8 C8        5.9847     3.5928     0.0920 C.ar   1 <0>      -0.0900
    9 C9        7.1578     4.3149     0.0911 C.ar   1 <0>      -0.1000
   10 C10       8.3809     3.6627     0.1742 C.ar   1 <0>       0.0400
   11 O11       9.6580     4.1418     0.1910 O.3    1 <0>      -0.3100
   12 C12      10.4670     3.0649     0.6995 C.3    1 <0>       0.2100
   13 O13       9.7346     1.8816     0.3303 O.3    1 <0>      -0.3100
   14 C14       8.4275     2.2697     0.2598 C.ar   1 <0>       0.0300
   15 C15       7.2565     1.5388     0.2672 C.ar   1 <0>      -0.0800
   16 N16      -1.2017     1.8514     0.0178 N.am   1 <0>      -0.6100
   17 C17      -1.2659     3.3153    -0.0903 C.3    1 <0>       0.1000
   18 C18      -2.2026     3.6837    -1.2451 C.3    1 <0>      -0.1400
   19 C19      -3.5595     3.0092    -1.0311 C.3    1 <0>      -0.1200
   20 C20      -3.3797     1.4894    -1.0212 C.3    1 <0>      -0.1400
   21 C21      -2.4566     1.0956     0.1300 C.3    1 <0>       0.1100
   22 H22       1.1575     3.0358    -0.0635 H      1 <0>       0.1300
   23 H23       2.4155     0.2415     0.1646 H      1 <0>       0.1300
   24 H24       3.5514     3.1383     0.0219 H      1 <0>       0.1300
   25 H25       4.8060     0.3459     0.2498 H      1 <0>       0.1300
   26 H26       5.0356     4.1041     0.0265 H      1 <0>       0.1400
   27 H27       7.1262     5.3924     0.0251 H      1 <0>       0.1400
   28 H28      11.4500     3.0693     0.2286 H      1 <0>       0.1300
   29 H29      10.5602     3.1349     1.7832 H      1 <0>       0.0900
   30 H30       7.2915     0.4618     0.3393 H      1 <0>       0.1400
   31 H31      -1.6503     3.7339     0.8398 H      1 <0>       0.0700
   32 H32      -0.2696     3.7111    -0.2874 H      1 <0>       0.0900
   33 H33      -2.3347     4.7653    -1.2755 H      1 <0>       0.0800
   34 H34      -1.7713     3.3429    -2.1864 H      1 <0>       0.0700
   35 H35      -3.9790     3.3315    -0.0781 H      1 <0>       0.0700
   36 H36      -4.2358     3.2896    -1.8387 H      1 <0>       0.0700
   37 H37      -4.3497     1.0092    -0.8921 H      1 <0>       0.0800
   38 H38      -2.9373     1.1692    -1.9645 H      1 <0>       0.0700
   39 H39      -2.2469     0.0271     0.0811 H      1 <0>       0.0900
   40 H40      -2.9356     1.3329     1.0800 H      1 <0>       0.0700
@<TRIPOS>BOND
   1    1    2 2
   2    2    3 1
   3    2   16 am
   4    3    4 2
   5    3   22 1
   6    4    5 1
   7    4   23 1
   8    5    6 2
   9    5   24 1
  10    6    7 1
  11    6   25 1
  12    7   15 ar
  13    7    8 ar
  14    8    9 ar
  15    8   26 1
  16    9   10 ar
  17    9   27 1
  18   10   14 ar
  19   10   11 1
  20   11   12 1
  21   12   13 1
  22   12   28 1
  23   12   29 1
  24   13   14 1
  25   14   15 ar
  26   15   30 1
  27   16   21 1
  28   16   17 1
  29   17   18 1
  30   17   31 1
  31   17   32 1
  32   18   19 1
  33   18   33 1
  34   18   34 1
  35   19   20 1
  36   19   35 1
  37   19   36 1
  38   20   21 1
  39   20   37 1
  40   20   38 1
  41   21   39 1
  42   21   40 1
