@<TRIPOS>MOLECULE
ZINC000013914951
  42   45    0    0    0
SMALL
USER_CHARGES
NO_NAME
@<TRIPOS>ATOM
    1 O1        0.0729     0.0430    -0.0228 O.co2  1 <0>      -0.6800
    2 C2        0.0257     1.2612    -0.0038 C.2    1 <0>       0.4800
    3 O3        1.0572     1.9113    -0.0018 O.co2  1 <0>      -0.6800
    4 C4       -1.3076     1.9635     0.0111 C.3    1 <0>       0.0700
    5 H5       -1.3940     2.6017    -0.8683 H      1 <0>       0.0900
    6 C6       -1.4245     2.8187     1.2810 C.3    1 <0>      -0.1100
    7 C7       -1.3726     1.8858     2.4747 C.2    1 <0>       0.1000
    8 C8       -0.6452     2.1914     3.5718 C.2    1 <0>      -0.2400
    9 C9       -0.6238     1.4227     4.8763 C.3    1 <0>      -0.0900
   10 C10       0.3650     2.2123     5.7529 C.3    1 <0>       0.1000
   11 N11       0.8177     3.3294     4.9179 N.am   1 <0>      -0.5600
   12 C12       1.7318     4.3058     5.3254 C.ar   1 <0>       0.1800
   13 C13       1.9997     5.3941     4.5049 C.ar   1 <0>      -0.1600
   14 C14       2.9028     6.3570     4.9106 C.ar   1 <0>      -0.0900
   15 C15       3.5405     6.2382     6.1319 C.ar   1 <0>      -0.1600
   16 C16       3.2761     5.1560     6.9511 C.ar   1 <0>      -0.1000
   17 C17       2.3697     4.1925     6.5540 C.ar   1 <0>      -0.1700
   18 C18       0.2411     3.2846     3.7113 C.2    1 <0>       0.5600
   19 O19       0.4510     4.1001     2.8320 O.2    1 <0>      -0.5000
   20 C20      -2.1441     0.6350     2.3945 C.ar   1 <0>      -0.1500
   21 C21      -2.3947    -0.1253     3.5382 C.ar   1 <0>      -0.0600
   22 C22      -3.1172    -1.2947     3.4343 C.ar   1 <0>      -0.1900
   23 C23      -3.5935    -1.7169     2.2015 C.ar   1 <0>       0.0300
   24 Cl24     -4.4997    -3.1934     2.0895 Cl     1 <0>      -0.0900
   25 C25      -3.3536    -0.9723     1.0613 C.ar   1 <0>      -0.2000
   26 C26      -2.6307     0.2081     1.1455 C.ar   1 <0>       0.3000
   27 N27      -2.3873     0.9691     0.0051 N.pl3  1 <0>      -0.7100
   28 H28      -0.5955     3.5248     1.3281 H      1 <0>       0.1300
   29 H29      -2.3710     3.3594     1.2760 H      1 <0>       0.0800
   30 H30      -1.6145     1.4127     5.3308 H      1 <0>       0.1000
   31 H31      -0.2652     0.4060     4.7155 H      1 <0>       0.1000
   32 H32      -0.1371     2.5869     6.6449 H      1 <0>       0.0800
   33 H33       1.2098     1.5821     6.0308 H      1 <0>       0.0800
   34 H34       1.5025     5.4871     3.5507 H      1 <0>       0.1600
   35 H35       3.1115     7.2034     4.2731 H      1 <0>       0.1200
   36 H36       4.2468     6.9922     6.4464 H      1 <0>       0.1200
   37 H37       3.7758     5.0662     7.9043 H      1 <0>       0.1200
   38 H38       2.1634     3.3477     7.1944 H      1 <0>       0.1200
   39 H39      -2.0243     0.2007     4.4989 H      1 <0>       0.1500
   40 H40      -3.3132    -1.8854     4.3169 H      1 <0>       0.1300
   41 H41      -3.7285    -1.3098     0.1064 H      1 <0>       0.1300
   42 H42      -2.9301     0.8422    -0.7887 H      1 <0>       0.4000
@<TRIPOS>BOND
   1    1    2 ar
   2    2    3 ar
   3    2    4 1
   4    4    5 1
   5    4   27 1
   6    4    6 1
   7    6    7 1
   8    6   28 1
   9    6   29 1
  10    7    8 2
  11    7   20 1
  12    8   18 1
  13    8    9 1
  14    9   10 1
  15    9   30 1
  16    9   31 1
  17   10   11 1
  18   10   32 1
  19   10   33 1
  20   11   12 1
  21   11   18 am
  22   12   17 ar
  23   12   13 ar
  24   13   14 ar
  25   13   34 1
  26   14   15 ar
  27   14   35 1
  28   15   16 ar
  29   15   36 1
  30   16   17 ar
  31   16   37 1
  32   17   38 1
  33   18   19 2
  34   20   26 ar
  35   20   21 ar
  36   21   22 ar
  37   21   39 1
  38   22   23 ar
  39   22   40 1
  40   23   24 1
  41   23   25 ar
  42   25   26 ar
  43   25   41 1
  44   26   27 1
  45   27   42 1
