@<TRIPOS>MOLECULE
ZINC000005781680
29    31    1     0     0
SMALL
USER_CHARGES
@<TRIPOS>ATOM
1      C1     -0.0184    1.5028    0.0103 C.3      1 ZINC000005781680   -0.1300
2      C2      0.0021   -0.0041    0.0020 C.ar     1 ZINC000005781680   -0.0700
3      C3      0.0057   -0.6887   -1.1989 C.ar     1 ZINC000005781680   -0.1100
4      C4      0.0245   -2.0709   -1.2065 C.ar     1 ZINC000005781680   -0.1000
5      C5      0.0400   -2.7685   -0.0132 C.ar     1 ZINC000005781680   -0.0700
6      C6      0.0600   -4.2753   -0.0215 C.3      1 ZINC000005781680   -0.1100
7      C7      1.3286   -5.0150    0.4078 C.3      1 ZINC000005781680   -0.1200
8      C8      0.0777   -5.0949    1.2852 C.3      1 ZINC000005781680   -0.1800
9      H9      0.0765   -4.6152    2.2640 H        1 ZINC000005781680    0.1600
10     C10    -0.8896   -6.2782    1.0674 C.3      1 ZINC000005781680    0.0300
11     N11    -0.9313   -6.4612   -0.4063 N.4      1 ZINC000005781680   -0.5400
12     H12    -0.1148   -6.9625   -0.7228 H        1 ZINC000005781680    0.4300
13     H13    -1.7719   -6.9487   -0.6777 H        1 ZINC000005781680    0.4400
14     C14    -0.9522   -4.9991   -0.9352 C.3      1 ZINC000005781680    0.0600
15     C15     0.0378   -2.0839    1.1877 C.ar     1 ZINC000005781680   -0.1000
16     C16     0.0229   -0.7016    1.1953 C.ar     1 ZINC000005781680   -0.1100
17     H17     1.0042    1.8801    0.0026 H        1 ZINC000005781680    0.0800
18     H18    -0.5455    1.8639   -0.8728 H        1 ZINC000005781680    0.0700
19     H19    -0.5286    1.8543    0.9071 H        1 ZINC000005781680    0.0700
20     H20    -0.0064   -0.1436   -2.1312 H        1 ZINC000005781680    0.1300
21     H21     0.0266   -2.6057   -2.1448 H        1 ZINC000005781680    0.1200
22     H22     1.6052   -5.9064   -0.1551 H        1 ZINC000005781680    0.1000
23     H23     2.1611   -4.4139    0.7735 H        1 ZINC000005781680    0.1300
24     H24    -0.5065   -7.1765    1.5514 H        1 ZINC000005781680    0.1400
25     H25    -1.8812   -6.0336    1.4482 H        1 ZINC000005781680    0.1400
26     H26    -1.9558   -4.5810   -0.8574 H        1 ZINC000005781680    0.1500
27     H27    -0.6035   -4.9632   -1.9673 H        1 ZINC000005781680    0.1400
28     H28     0.0503   -2.6289    2.1200 H        1 ZINC000005781680    0.1200
29     H29     0.0211   -0.1667    2.1335 H        1 ZINC000005781680    0.1300
@<TRIPOS>BOND
1     1     2     1
2     1     17    1
3     1     18    1
4     1     19    1
5     2     16    ar
6     2     3     ar
7     3     4     ar
8     3     20    1
9     4     5     ar
10    4     21    1
11    5     6     1
12    5     15    ar
13    6     8     1
14    6     14    1
15    6     7     1
16    7     8     1
17    7     22    1
18    7     23    1
19    8     9     1
20    8     10    1
21    10    11    1
22    10    24    1
23    10    25    1
24    11    12    1
25    11    13    1
26    11    14    1
27    14    26    1
28    14    27    1
29    15    16    ar
30    15    28    1
31    16    29    1
@<TRIPOS>SUBSTRUCTURE
1   ZINC000005781680 1     RESIDUE    1   A     ZIN   1
