@<TRIPOS>MOLECULE
ZINC000043201232
56    59    1     0     0
SMALL
USER_CHARGES
@<TRIPOS>ATOM
1      C1      0.9643    0.8106   -0.5984 C.3      1 ZINC000043201232   -0.1200
2      C2      0.0936   -0.3373   -0.1566 C.ar     1 ZINC000043201232   -0.0700
3      C3     -1.1123   -0.5712   -0.7943 C.ar     1 ZINC000043201232   -0.1100
4      C4     -1.9202   -1.6203   -0.3998 C.ar     1 ZINC000043201232   -0.0700
5      C5     -1.5238   -2.4493    0.6446 C.ar     1 ZINC000043201232   -0.0200
6      C6     -2.3875   -3.5760    1.0711 C.ar     1 ZINC000043201232    0.3500
7      N7     -2.0603   -4.2688    2.1535 N.ar     1 ZINC000043201232   -0.4800
8      C8     -2.8087   -5.2791    2.5608 C.ar     1 ZINC000043201232    0.1500
9      C9     -3.9474   -5.6109    1.8414 C.ar     1 ZINC000043201232   -0.2300
10     C10    -4.2603   -4.8654    0.7142 C.ar     1 ZINC000043201232    0.1500
11     N11    -3.4720   -3.8639    0.3643 N.ar     1 ZINC000043201232   -0.5100
12     C12    -0.2987   -2.2124    1.2932 C.ar     1 ZINC000043201232   -0.0800
13     C13     0.1351   -3.0847    2.4042 C.2      1 ZINC000043201232    0.5800
14     O14     0.2536   -4.2814    2.2266 O.2      1 ZINC000043201232   -0.5000
15     N15     0.3994   -2.5536    3.6143 N.am     1 ZINC000043201232   -0.6100
16     C16     0.1520   -1.1293    3.8769 C.3      1 ZINC000043201232    0.1100
17     C17    -0.7345   -1.0038    5.1199 C.3      1 ZINC000043201232   -0.1000
18     H18    -1.7144   -1.4341    4.9128 H        1 ZINC000043201232    0.0900
19     C19    -0.8926    0.4730    5.4874 C.3      1 ZINC000043201232    0.0800
20     O20    -1.6020    1.1493    4.4476 O.3      1 ZINC000043201232   -0.3000
21     C21    -1.8282    2.4767    4.6184 C.ar     1 ZINC000043201232    0.3200
22     C22    -2.5174    3.1871    3.6447 C.ar     1 ZINC000043201232   -0.1600
23     C23    -2.7421    4.5403    3.8299 C.ar     1 ZINC000043201232   -0.0700
24     C24    -2.2659    5.1380    4.9904 C.ar     1 ZINC000043201232    0.0100
25     F25    -2.4639    6.4561    5.2109 F        1 ZINC000043201232   -0.1300
26     C26    -1.5874    4.3680    5.9173 C.ar     1 ZINC000043201232    0.1200
27     N27    -1.3944    3.0787    5.7130 N.ar     1 ZINC000043201232   -0.5200
28     C28    -0.0830   -1.7537    6.2841 C.3      1 ZINC000043201232   -0.1100
29     C29     0.0449   -3.2370    5.9299 C.3      1 ZINC000043201232   -0.1300
30     C30     0.9346   -3.3892    4.6979 C.3      1 ZINC000043201232    0.1500
31     H31     1.9473   -3.0639    4.9360 H        1 ZINC000043201232    0.0700
32     C32     0.9565   -4.8547    4.2589 C.3      1 ZINC000043201232   -0.1400
33     C33     0.5062   -1.1530    0.8783 C.ar     1 ZINC000043201232   -0.1000
34     H34     1.6452    0.4708   -1.3787 H        1 ZINC000043201232    0.0800
35     H35     0.3376    1.6132   -0.9873 H        1 ZINC000043201232    0.0700
36     H36     1.5397    1.1781    0.2512 H        1 ZINC000043201232    0.0700
37     H37    -1.4239    0.0705   -1.6052 H        1 ZINC000043201232    0.1300
38     H38    -2.8598   -1.7967   -0.9022 H        1 ZINC000043201232    0.1400
39     H39    -2.5368   -5.8399    3.4429 H        1 ZINC000043201232    0.1700
40     H40    -4.5765   -6.4320    2.1519 H        1 ZINC000043201232    0.1500
41     H41    -5.1398   -5.0978    0.1320 H        1 ZINC000043201232    0.1700
42     H42     1.0998   -0.6199    4.0511 H        1 ZINC000043201232    0.0700
43     H43    -0.3535   -0.6823    3.0209 H        1 ZINC000043201232    0.0900
44     H44    -1.4487    0.5575    6.4211 H        1 ZINC000043201232    0.0700
45     H45     0.0920    0.9246    5.6087 H        1 ZINC000043201232    0.0700
46     H46    -2.8733    2.6903    2.7542 H        1 ZINC000043201232    0.1500
47     H47    -3.2750    5.1183    3.0893 H        1 ZINC000043201232    0.1600
48     H48    -1.2144    4.8266    6.8212 H        1 ZINC000043201232    0.1700
49     H49     0.9069   -1.3391    6.4745 H        1 ZINC000043201232    0.0700
50     H50    -0.6997   -1.6453    7.1763 H        1 ZINC000043201232    0.0700
51     H51     0.4875   -3.7745    6.7685 H        1 ZINC000043201232    0.0800
52     H52    -0.9423   -3.6463    5.7152 H        1 ZINC000043201232    0.0700
53     H53    -0.0454   -5.1580    3.9552 H        1 ZINC000043201232    0.0800
54     H54     1.6418   -4.9723    3.4194 H        1 ZINC000043201232    0.0700
55     H55     1.2888   -5.4778    5.0892 H        1 ZINC000043201232    0.0400
56     H56     1.4484   -0.9649    1.3716 H        1 ZINC000043201232    0.1300
@<TRIPOS>BOND
1     1     2     1
2     1     34    1
3     1     35    1
4     1     36    1
5     2     33    ar
6     2     3     ar
7     3     4     ar
8     3     37    1
9     4     5     ar
10    4     38    1
11    5     6     1
12    5     12    ar
13    6     11    ar
14    6     7     ar
15    7     8     ar
16    8     9     ar
17    8     39    1
18    9     10    ar
19    9     40    1
20    10    11    ar
21    10    41    1
22    12    13    1
23    12    33    ar
24    13    14    2
25    13    15    am
26    15    30    1
27    15    16    1
28    16    17    1
29    16    42    1
30    16    43    1
31    17    18    1
32    17    19    1
33    17    28    1
34    19    20    1
35    19    44    1
36    19    45    1
37    20    21    1
38    21    27    ar
39    21    22    ar
40    22    23    ar
41    22    46    1
42    23    24    ar
43    23    47    1
44    24    25    1
45    24    26    ar
46    26    27    ar
47    26    48    1
48    28    29    1
49    28    49    1
50    28    50    1
51    29    30    1
52    29    51    1
53    29    52    1
54    30    31    1
55    30    32    1
56    32    53    1
57    32    54    1
58    32    55    1
59    33    56    1
@<TRIPOS>SUBSTRUCTURE
1   ZINC000043201232 1     RESIDUE    1   A     ZIN   1
