@<TRIPOS>MOLECULE
ZINC000024760115
59    64    1     0     0
SMALL
USER_CHARGES
@<TRIPOS>ATOM
1      C1      0.6404    1.3557    0.1409 C.3      1 ZINC000024760115    0.1000
2      N2      0.2763   -0.0618    0.0741 N.am     1 ZINC000024760115   -0.5200
3      C3      0.4383   -0.8693   -0.9920 C.2      1 ZINC000024760115    0.6800
4      O4      0.9138   -0.5349   -2.0611 O.2      1 ZINC000024760115   -0.5300
5      N5     -0.0075   -2.1044   -0.6909 N.am     1 ZINC000024760115   -0.4800
6      C6     -0.0005   -3.2101   -1.5512 C.ar     1 ZINC000024760115    0.1300
7      C7     -1.0898   -3.4565   -2.3762 C.ar     1 ZINC000024760115   -0.0900
8      C8     -1.0798   -4.5471   -3.2236 C.ar     1 ZINC000024760115   -0.1000
9      C9      0.0137   -5.3932   -3.2509 C.ar     1 ZINC000024760115   -0.0600
10     C10     0.0214   -6.5823   -4.1767 C.3      1 ZINC000024760115    0.0800
11     C11     1.3359   -7.3478   -4.0127 C.3      1 ZINC000024760115   -0.1500
12     C12    -1.1513   -7.5032   -3.8338 C.3      1 ZINC000024760115   -0.1400
13     C13    -0.1076   -6.1212   -5.5687 C.1      1 ZINC000024760115    0.2100
14     N14    -0.2071   -5.7654   -6.6429 N.1      1 ZINC000024760115   -0.4200
15     C15     1.1002   -5.1502   -2.4309 C.ar     1 ZINC000024760115   -0.1000
16     C16     1.0982   -4.0585   -1.5848 C.ar     1 ZINC000024760115   -0.1000
17     C17    -0.4725   -2.0960    0.6110 C.ar     1 ZINC000024760115    0.1400
18     C18    -0.2911   -0.8082    1.1037 C.ar     1 ZINC000024760115    0.0200
19     C19    -0.6773   -0.5118    2.4106 C.ar     1 ZINC000024760115    0.1700
20     N20    -1.2098   -1.4223    3.1909 N.ar     1 ZINC000024760115   -0.4600
21     C21    -1.4117   -2.6796    2.7790 C.ar     1 ZINC000024760115    0.1300
22     C22    -1.9853   -3.6328    3.6389 C.ar     1 ZINC000024760115   -0.0800
23     C23    -2.1859   -4.9061    3.2096 C.ar     1 ZINC000024760115   -0.0900
24     C24    -1.8274   -5.2929    1.9093 C.ar     1 ZINC000024760115   -0.0300
25     C25    -2.0571   -6.6894    1.4658 C.ar     1 ZINC000024760115   -0.1000
26     C26    -1.6015   -7.1158    0.2081 C.ar     1 ZINC000024760115    0.1400
27     N27    -1.7905   -8.3418   -0.2095 N.ar     1 ZINC000024760115   -0.4600
28     C28    -2.4257   -9.2489    0.5401 C.ar     1 ZINC000024760115    0.1300
29     C29    -2.6187  -10.5613    0.0747 C.ar     1 ZINC000024760115   -0.0900
30     C30    -3.2679  -11.4674    0.8557 C.ar     1 ZINC000024760115   -0.1000
31     C31    -3.7484  -11.1176    2.1161 C.ar     1 ZINC000024760115   -0.1100
32     C32    -3.5810   -9.8570    2.6018 C.ar     1 ZINC000024760115   -0.1000
33     C33    -2.9153   -8.8953    1.8228 C.ar     1 ZINC000024760115   -0.1000
34     C34    -2.7186   -7.5855    2.2930 C.ar     1 ZINC000024760115   -0.0400
35     C35    -1.2612   -4.3785    1.0380 C.ar     1 ZINC000024760115   -0.0900
36     C36    -1.0438   -3.0634    1.4646 C.ar     1 ZINC000024760115   -0.0600
37     H37     1.6690    1.4506    0.4886 H        1 ZINC000024760115    0.0800
38     H38     0.5491    1.8013   -0.8497 H        1 ZINC000024760115    0.0900
39     H39    -0.0262    1.8698    0.8334 H        1 ZINC000024760115    0.0900
40     H40    -1.9443   -2.7963   -2.3550 H        1 ZINC000024760115    0.1300
41     H41    -1.9269   -4.7396   -3.8652 H        1 ZINC000024760115    0.1400
42     H42     1.4314   -7.6892   -2.9820 H        1 ZINC000024760115    0.0900
43     H43     1.3415   -8.2078   -4.6823 H        1 ZINC000024760115    0.0700
44     H44     2.1714   -6.6917   -4.2570 H        1 ZINC000024760115    0.0700
45     H45    -2.0878   -6.9579   -3.9506 H        1 ZINC000024760115    0.0700
46     H46    -1.1457   -8.3633   -4.5034 H        1 ZINC000024760115    0.0700
47     H47    -1.0558   -7.8446   -2.8031 H        1 ZINC000024760115    0.0900
48     H48     1.9529   -5.8125   -2.4548 H        1 ZINC000024760115    0.1500
49     H49     1.9472   -3.8690   -0.9448 H        1 ZINC000024760115    0.1300
50     H50    -0.5345    0.4896    2.7890 H        1 ZINC000024760115    0.1700
51     H51    -2.2668   -3.3522    4.6431 H        1 ZINC000024760115    0.1500
52     H52    -2.6268   -5.6305    3.8784 H        1 ZINC000024760115    0.1400
53     H53    -1.0832   -6.4155   -0.4302 H        1 ZINC000024760115    0.1600
54     H54    -2.2533  -10.8496   -0.8998 H        1 ZINC000024760115    0.1400
55     H55    -3.4134  -12.4740    0.4924 H        1 ZINC000024760115    0.1300
56     H56    -4.2604  -11.8561    2.7152 H        1 ZINC000024760115    0.1300
57     H57    -3.9574   -9.5975    3.5802 H        1 ZINC000024760115    0.1300
58     H58    -3.0753   -7.2845    3.2670 H        1 ZINC000024760115    0.1400
59     H59    -0.9865   -4.6784    0.0375 H        1 ZINC000024760115    0.1300
@<TRIPOS>BOND
1     1     2     1
2     1     37    1
3     1     38    1
4     1     39    1
5     2     18    1
6     2     3     am
7     3     4     2
8     3     5     am
9     5     6     1
10    5     17    1
11    6     16    ar
12    6     7     ar
13    7     8     ar
14    7     40    1
15    8     9     ar
16    8     41    1
17    9     10    1
18    9     15    ar
19    10    11    1
20    10    12    1
21    10    13    1
22    11    42    1
23    11    43    1
24    11    44    1
25    12    45    1
26    12    46    1
27    12    47    1
28    13    14    3
29    15    16    ar
30    15    48    1
31    16    49    1
32    17    36    ar
33    17    18    ar
34    18    19    ar
35    19    20    ar
36    19    50    1
37    20    21    ar
38    21    36    ar
39    21    22    ar
40    22    23    ar
41    22    51    1
42    23    24    ar
43    23    52    1
44    24    25    1
45    24    35    ar
46    25    34    ar
47    25    26    ar
48    26    27    ar
49    26    53    1
50    27    28    ar
51    28    33    ar
52    28    29    ar
53    29    30    ar
54    29    54    1
55    30    31    ar
56    30    55    1
57    31    32    ar
58    31    56    1
59    32    33    ar
60    32    57    1
61    33    34    ar
62    34    58    1
63    35    36    ar
64    35    59    1
@<TRIPOS>SUBSTRUCTURE
1   ZINC000024760115 1     RESIDUE    1   A     ZIN   1
