@<TRIPOS>MOLECULE
ZINC000150339466
104   110   1     0     0
SMALL
USER_CHARGES
@<TRIPOS>ATOM
1      C1     -0.6741   -0.1038    4.1307 C.3      1 ZINC000150339466    0.0300
2      O2     -0.7123   -0.9772    3.0003 O.3      1 ZINC000150339466   -0.3100
3      C3     -1.9263   -1.4709    2.6432 C.ar     1 ZINC000150339466    0.1500
4      C4     -3.0614   -1.1093    3.3738 C.ar     1 ZINC000150339466   -0.2100
5      C5     -4.2897   -1.5899    3.0362 C.ar     1 ZINC000150339466   -0.0300
6      C6     -4.4239   -2.4583    1.9438 C.ar     1 ZINC000150339466   -0.1500
7      C7     -3.2801   -2.8316    1.1962 C.ar     1 ZINC000150339466    0.2000
8      C8     -2.0256   -2.3177    1.5620 C.ar     1 ZINC000150339466   -0.1500
9      N9     -3.4044   -3.6594    0.1526 N.ar     1 ZINC000150339466   -0.5000
10     C10    -4.5811   -4.1447   -0.2045 C.ar     1 ZINC000150339466    0.2800
11     C11    -4.6641   -5.0576   -1.3671 C.2      1 ZINC000150339466    0.1300
12     C12    -3.5803   -5.4202   -2.0776 C.2      1 ZINC000150339466   -0.2300
13     S13    -4.1004   -6.5054   -3.3646 S.3      1 ZINC000150339466    0.0500
14     C14    -5.7668   -6.3664   -2.8133 C.2      1 ZINC000150339466    0.3600
15     N15    -6.8551   -7.0007   -3.3895 N.pl3    1 ZINC000150339466   -0.6800
16     C16    -6.6647   -7.8690   -4.5540 C.3      1 ZINC000150339466    0.1400
17     C17    -6.2801   -9.2737   -4.0854 C.3      1 ZINC000150339466   -0.1700
18     C18    -7.9652   -7.9375   -5.3571 C.3      1 ZINC000150339466   -0.1600
19     N19    -5.8172   -5.5835   -1.7813 N.2      1 ZINC000150339466   -0.5300
20     C20    -5.7514   -3.8157    0.4919 C.ar     1 ZINC000150339466   -0.2600
21     C21    -5.6879   -2.9729    1.5698 C.ar     1 ZINC000150339466    0.2000
22     O22    -6.8068   -2.6401    2.2600 O.3      1 ZINC000150339466   -0.2900
23     C23    -8.0459   -3.1648    1.7790 C.3      1 ZINC000150339466    0.0800
24     H24    -7.8990   -4.1702    1.3842 H        1 ZINC000150339466    0.1000
25     C25    -8.6213   -2.2467    0.6877 C.3      1 ZINC000150339466   -0.1400
26     C26    -9.9546   -1.7278    1.2379 C.3      1 ZINC000150339466    0.1200
27     H27    -9.8509   -0.6819    1.5250 H        1 ZINC000150339466    0.0900
28     C28   -11.0430   -1.8778    0.2080 C.2      1 ZINC000150339466    0.5100
29     O29   -11.4290   -2.9782   -0.1254 O.2      1 ZINC000150339466   -0.4500
30     N30   -11.5900   -0.7492   -0.3468 N.am     1 ZINC000150339466   -0.7000
31     C31   -12.7559   -1.0175   -1.2187 C.3      1 ZINC000150339466    0.0800
32     C32   -12.8525   -2.4211   -1.7473 C.2      1 ZINC000150339466    0.5600
33     O33   -13.8302   -3.1030   -1.4912 O.co2    1 ZINC000150339466   -0.6700
34     O34   -11.9532   -2.8778   -2.4323 O.co2    1 ZINC000150339466   -0.6900
35     C35   -13.2589    0.1253   -2.0978 C.3      1 ZINC000150339466   -0.1800
36     C36   -14.0526   -0.2903   -0.8587 C.3      1 ZINC000150339466   -0.1200
37     H37   -14.0258    0.3862   -0.0021 H        1 ZINC000150339466    0.0900
38     C38   -15.3426   -1.0459   -1.0493 C.2      1 ZINC000150339466   -0.0800
39     C39   -15.9251   -1.5972   -0.0106 C.2      1 ZINC000150339466   -0.1600
40     C40   -15.2937   -1.4614    1.3513 C.3      1 ZINC000150339466   -0.0800
41     C41   -16.1102   -2.2460    2.3795 C.3      1 ZINC000150339466   -0.1100
42     C42   -15.2987   -2.3952    3.6679 C.3      1 ZINC000150339466   -0.1000
43     C43   -14.1625   -3.3951    3.4444 C.3      1 ZINC000150339466   -0.1600
44     C44   -13.2050   -3.3520    4.6380 C.3      1 ZINC000150339466   -0.1100
45     C45   -11.7663   -3.5294    4.1462 C.3      1 ZINC000150339466    0.1600
46     H46   -11.6040   -4.5705    3.8671 H        1 ZINC000150339466    0.1200
47     N47   -10.8362   -3.1606    5.2163 N.am     1 ZINC000150339466   -0.7000
48     C48   -10.5385   -4.0481    6.1860 C.2      1 ZINC000150339466    0.6500
49     O49   -10.9757   -5.1804    6.1283 O.2      1 ZINC000150339466   -0.5600
50     O50    -9.7569   -3.6800    7.2186 O.3      1 ZINC000150339466   -0.3600
51     C51    -9.3843   -4.7160    8.1653 C.3      1 ZINC000150339466    0.1000
52     C52    -7.9663   -5.2538    7.8503 C.3      1 ZINC000150339466   -0.1400
53     C53    -7.5102   -5.8333    9.2123 C.3      1 ZINC000150339466   -0.1200
54     C54    -8.0676   -4.8394   10.2521 C.3      1 ZINC000150339466   -0.1200
55     C55    -9.2592   -4.1290    9.5864 C.3      1 ZINC000150339466   -0.1200
56     C56   -11.5282   -2.6466    2.9496 C.2      1 ZINC000150339466    0.5200
57     O57   -12.4537   -2.0326    2.4625 O.2      1 ZINC000150339466   -0.4600
58     N58   -10.2962   -2.5326    2.4150 N.am     1 ZINC000150339466   -0.5900
59     C59    -9.0835   -3.1877    2.9087 C.3      1 ZINC000150339466    0.1200
60     H60     0.3524    0.2175    4.3071 H        1 ZINC000150339466    0.1000
61     H61    -1.2995    0.7678    3.9377 H        1 ZINC000150339466    0.0600
62     H62    -1.0461   -0.6305    5.0095 H        1 ZINC000150339466    0.0600
63     H63    -2.9631   -0.4408    4.2164 H        1 ZINC000150339466    0.1300
64     H64    -5.1591   -1.3030    3.6091 H        1 ZINC000150339466    0.1400
65     H65    -1.1427   -2.5914    1.0035 H        1 ZINC000150339466    0.1500
66     H66    -2.5656   -5.1009   -1.8909 H        1 ZINC000150339466    0.1900
67     H67    -7.7432   -6.8700   -3.0220 H        1 ZINC000150339466    0.4200
68     H68    -5.8706   -7.4654   -5.1822 H        1 ZINC000150339466    0.0800
69     H69    -6.1385   -9.9197   -4.9518 H        1 ZINC000150339466    0.0700
70     H70    -5.3536   -9.2249   -3.5133 H        1 ZINC000150339466    0.0600
71     H71    -7.0742   -9.6773   -3.4572 H        1 ZINC000150339466    0.0600
72     H72    -8.2393   -6.9367   -5.6910 H        1 ZINC000150339466    0.0700
73     H73    -7.8236   -8.5835   -6.2235 H        1 ZINC000150339466    0.0800
74     H74    -8.7593   -8.3411   -4.7289 H        1 ZINC000150339466    0.0700
75     H75    -6.7007   -4.2256    0.1801 H        1 ZINC000150339466    0.1600
76     H76    -7.9426   -1.4147    0.4999 H        1 ZINC000150339466    0.1000
77     H77    -8.7873   -2.8114   -0.2298 H        1 ZINC000150339466    0.1000
78     H78   -11.2450    0.1425   -0.1829 H        1 ZINC000150339466    0.3900
79     H79   -12.7164    1.0697   -2.0546 H        1 ZINC000150339466    0.0800
80     H80   -13.6740   -0.1342   -3.0717 H        1 ZINC000150339466    0.0900
81     H81   -15.7800   -1.1314   -2.0322 H        1 ZINC000150339466    0.0900
82     H82   -16.8482   -2.1415   -0.1367 H        1 ZINC000150339466    0.0900
83     H83   -14.2770   -1.8532    1.3203 H        1 ZINC000150339466    0.1000
84     H84   -15.2675   -0.4094    1.6355 H        1 ZINC000150339466    0.0500
85     H85   -17.0359   -1.7115    2.5929 H        1 ZINC000150339466    0.0500
86     H86   -16.3441   -3.2332    1.9810 H        1 ZINC000150339466    0.0600
87     H87   -14.8814   -1.4280    3.9482 H        1 ZINC000150339466    0.0600
88     H88   -15.9477   -2.7555    4.4661 H        1 ZINC000150339466    0.0400
89     H89   -14.5757   -4.3989    3.3458 H        1 ZINC000150339466    0.0500
90     H90   -13.6216   -3.1334    2.5349 H        1 ZINC000150339466    0.1300
91     H91   -13.2998   -2.3919    5.1452 H        1 ZINC000150339466    0.0700
92     H92   -13.4533   -4.1552    5.3319 H        1 ZINC000150339466    0.0700
93     H93   -10.4345   -2.2778    5.2269 H        1 ZINC000150339466    0.4100
94     H94   -10.1138   -5.5258    8.1499 H        1 ZINC000150339466    0.1000
95     H95    -8.0095   -6.0361    7.0925 H        1 ZINC000150339466    0.0700
96     H96    -7.3077   -4.4447    7.5346 H        1 ZINC000150339466    0.0800
97     H97    -7.9352   -6.8251    9.3665 H        1 ZINC000150339466    0.0700
98     H98    -6.4221   -5.8710    9.2657 H        1 ZINC000150339466    0.0700
99     H99    -8.4015   -5.3761   11.1401 H        1 ZINC000150339466    0.0700
100    H100   -7.3019   -4.1118   10.5210 H        1 ZINC000150339466    0.0700
101    H101   -9.0718   -3.0566    9.5323 H        1 ZINC000150339466    0.0800
102    H102  -10.1714   -4.3209   10.1513 H        1 ZINC000150339466    0.0700
103    H103   -9.3066   -4.2184    3.1844 H        1 ZINC000150339466    0.0900
104    H104   -8.6988   -2.6486    3.7745 H        1 ZINC000150339466    0.0900
@<TRIPOS>BOND
1     1     2     1
2     1     60    1
3     1     61    1
4     1     62    1
5     2     3     1
6     3     8     ar
7     3     4     ar
8     4     5     ar
9     4     63    1
10    5     6     ar
11    5     64    1
12    6     21    ar
13    6     7     ar
14    7     8     ar
15    7     9     ar
16    8     65    1
17    9     10    ar
18    10    11    1
19    10    20    ar
20    11    19    1
21    11    12    2
22    12    13    1
23    12    66    1
24    13    14    1
25    14    15    1
26    14    19    2
27    15    16    1
28    15    67    1
29    16    17    1
30    16    18    1
31    16    68    1
32    17    69    1
33    17    70    1
34    17    71    1
35    18    72    1
36    18    73    1
37    18    74    1
38    20    21    ar
39    20    75    1
40    21    22    1
41    22    23    1
42    23    24    1
43    23    59    1
44    23    25    1
45    25    26    1
46    25    76    1
47    25    77    1
48    26    27    1
49    26    58    1
50    26    28    1
51    28    29    2
52    28    30    am
53    30    31    1
54    30    78    1
55    31    36    1
56    31    32    1
57    31    35    1
58    32    33    ar
59    32    34    ar
60    35    36    1
61    35    79    1
62    35    80    1
63    36    37    1
64    36    38    1
65    38    39    2
66    38    81    1
67    39    40    1
68    39    82    1
69    40    41    1
70    40    83    1
71    40    84    1
72    41    42    1
73    41    85    1
74    41    86    1
75    42    43    1
76    42    87    1
77    42    88    1
78    43    44    1
79    43    89    1
80    43    90    1
81    44    45    1
82    44    91    1
83    44    92    1
84    45    46    1
85    45    47    1
86    45    56    1
87    47    48    am
88    47    93    1
89    48    49    2
90    48    50    1
91    50    51    1
92    51    55    1
93    51    52    1
94    51    94    1
95    52    53    1
96    52    95    1
97    52    96    1
98    53    54    1
99    53    97    1
100   53    98    1
101   54    55    1
102   54    99    1
103   54    100   1
104   55    101   1
105   55    102   1
106   56    57    2
107   56    58    am
108   58    59    1
109   59    103   1
110   59    104   1
@<TRIPOS>SUBSTRUCTURE
1   ZINC000150339466 1     RESIDUE    1   A     ZIN   1
