@<TRIPOS>MOLECULE
ZINC000003791925
66    67    1     0     0
SMALL
USER_CHARGES
@<TRIPOS>ATOM
1      C1      0.0362    1.6589   -0.1834 C.3      1 ZINC000003791925   -0.1200
2      C2      0.0806    0.1646    0.0068 C.2      1 ZINC000003791925   -0.1300
3      C3      1.4036   -0.5568   -0.0003 C.3      1 ZINC000003791925   -0.1200
4      C4     -1.0309   -0.5071    0.1783 C.2      1 ZINC000003791925   -0.1700
5      C5     -2.3540    0.2143    0.1854 C.3      1 ZINC000003791925   -0.0900
6      C6     -3.2817   -0.4115   -0.8579 C.3      1 ZINC000003791925   -0.0800
7      C7     -4.6048    0.3100   -0.8508 C.2      1 ZINC000003791925   -0.1300
8      C8     -5.6760   -0.0901    0.1308 C.3      1 ZINC000003791925   -0.1200
9      C9     -4.8237    1.2850   -1.6979 C.2      1 ZINC000003791925   -0.1600
10     C10    -6.0964    2.0874   -1.6107 C.3      1 ZINC000003791925   -0.0900
11     C11    -5.7550    3.5748   -1.5013 C.3      1 ZINC000003791925   -0.0800
12     C12    -7.0277    4.3772   -1.4141 C.2      1 ZINC000003791925   -0.1200
13     C13    -7.7500    4.7835   -2.6728 C.3      1 ZINC000003791925   -0.1200
14     C14    -7.5061    4.7214   -0.2442 C.2      1 ZINC000003791925   -0.1700
15     C15    -8.8403    5.4158   -0.1504 C.3      1 ZINC000003791925   -0.0900
16     C16    -9.7533    4.6399    0.8011 C.3      1 ZINC000003791925   -0.1000
17     C17   -11.1078    5.3449    0.8963 C.3      1 ZINC000003791925    0.1200
18     C18   -10.9024    6.8006    1.3201 C.3      1 ZINC000003791925   -0.1800
19     C19   -11.9928    4.6270    1.9233 C.3      1 ZINC000003791925   -0.1500
20     C20   -13.2932    5.4200    2.0751 C.3      1 ZINC000003791925   -0.0800
21     C21   -13.8547    5.7404    0.7129 C.ar     1 ZINC000003791925   -0.1400
22     C22   -15.1851    6.1106    0.6122 C.ar     1 ZINC000003791925   -0.1100
23     C23   -15.7337    6.4158   -0.6232 C.ar     1 ZINC000003791925    0.0700
24     O24   -17.0408    6.7789   -0.7173 O.3      1 ZINC000003791925   -0.5000
25     C25   -14.9469    6.3505   -1.7633 C.ar     1 ZINC000003791925   -0.1100
26     C26   -13.6214    5.9801   -1.6641 C.ar     1 ZINC000003791925   -0.1300
27     C27   -13.0699    5.6719   -0.4249 C.ar     1 ZINC000003791925    0.1300
28     O28   -11.7631    5.3010   -0.3720 O.3      1 ZINC000003791925   -0.3000
29     H29     1.0498    2.0394   -0.3097 H        1 ZINC000003791925    0.0600
30     H30    -0.5536    1.8951   -1.0691 H        1 ZINC000003791925    0.0700
31     H31    -0.4198    2.1231    0.6911 H        1 ZINC000003791925    0.0600
32     H32     1.7999   -0.5992    1.0142 H        1 ZINC000003791925    0.0700
33     H33     1.2632   -1.5696   -0.3781 H        1 ZINC000003791925    0.0600
34     H34     2.1048   -0.0236   -0.6423 H        1 ZINC000003791925    0.0600
35     H35    -0.9991   -1.5780    0.3146 H        1 ZINC000003791925    0.1100
36     H36    -2.8083    0.1304    1.1726 H        1 ZINC000003791925    0.0700
37     H37    -2.1956    1.2660   -0.0534 H        1 ZINC000003791925    0.0700
38     H38    -2.8274   -0.3275   -1.8452 H        1 ZINC000003791925    0.0700
39     H39    -3.4401   -1.4631   -0.6191 H        1 ZINC000003791925    0.0700
40     H40    -5.3494   -0.9690    0.6867 H        1 ZINC000003791925    0.0600
41     H41    -5.8588    0.7310    0.8238 H        1 ZINC000003791925    0.0700
42     H42    -6.5945   -0.3219   -0.4084 H        1 ZINC000003791925    0.0700
43     H43    -4.0921    1.5138   -2.4587 H        1 ZINC000003791925    0.1100
44     H44    -6.6954    1.9169   -2.5052 H        1 ZINC000003791925    0.0700
45     H45    -6.6611    1.7786   -0.7310 H        1 ZINC000003791925    0.0700
46     H46    -5.1560    3.7453   -0.6068 H        1 ZINC000003791925    0.0700
47     H47    -5.1903    3.8836   -2.3810 H        1 ZINC000003791925    0.0700
48     H48    -7.1610    4.4883   -3.5411 H        1 ZINC000003791925    0.0600
49     H49    -8.7220    4.2917   -2.7088 H        1 ZINC000003791925    0.0700
50     H50    -7.8893    5.8646   -2.6788 H        1 ZINC000003791925    0.0600
51     H51    -6.9444    4.5076    0.6531 H        1 ZINC000003791925    0.1100
52     H52    -8.6973    6.4280    0.2279 H        1 ZINC000003791925    0.0700
53     H53    -9.2979    5.4586   -1.1388 H        1 ZINC000003791925    0.0800
54     H54    -9.8963    3.6277    0.4227 H        1 ZINC000003791925    0.0700
55     H55    -9.2957    4.5971    1.7894 H        1 ZINC000003791925    0.0800
56     H56   -10.2811    7.3093    0.5830 H        1 ZINC000003791925    0.0700
57     H57   -11.8692    7.2995    1.3869 H        1 ZINC000003791925    0.0600
58     H58   -10.4105    6.8300    2.2923 H        1 ZINC000003791925    0.0700
59     H59   -12.2161    3.6186    1.5748 H        1 ZINC000003791925    0.0800
60     H60   -11.4776    4.5790    2.8826 H        1 ZINC000003791925    0.0900
61     H61   -14.0163    4.8272    2.6352 H        1 ZINC000003791925    0.0800
62     H62   -13.0919    6.3472    2.6117 H        1 ZINC000003791925    0.0800
63     H63   -15.7978    6.1615    1.5001 H        1 ZINC000003791925    0.1300
64     H64   -17.1914    7.7306   -0.6363 H        1 ZINC000003791925    0.3900
65     H65   -15.3711    6.5889   -2.7275 H        1 ZINC000003791925    0.1300
66     H66   -13.0094    5.9293   -2.5525 H        1 ZINC000003791925    0.1300
@<TRIPOS>BOND
1     1     2     1
2     1     29    1
3     1     30    1
4     1     31    1
5     2     3     1
6     2     4     2
7     3     32    1
8     3     33    1
9     3     34    1
10    4     5     1
11    4     35    1
12    5     6     1
13    5     36    1
14    5     37    1
15    6     7     1
16    6     38    1
17    6     39    1
18    7     8     1
19    7     9     2
20    8     40    1
21    8     41    1
22    8     42    1
23    9     10    1
24    9     43    1
25    10    11    1
26    10    44    1
27    10    45    1
28    11    12    1
29    11    46    1
30    11    47    1
31    12    13    1
32    12    14    2
33    13    48    1
34    13    49    1
35    13    50    1
36    14    15    1
37    14    51    1
38    15    16    1
39    15    52    1
40    15    53    1
41    16    17    1
42    16    54    1
43    16    55    1
44    17    28    1
45    17    18    1
46    17    19    1
47    18    56    1
48    18    57    1
49    18    58    1
50    19    20    1
51    19    59    1
52    19    60    1
53    20    21    1
54    20    61    1
55    20    62    1
56    21    27    ar
57    21    22    ar
58    22    23    ar
59    22    63    1
60    23    24    1
61    23    25    ar
62    24    64    1
63    25    26    ar
64    25    65    1
65    26    27    ar
66    26    66    1
67    27    28    1
@<TRIPOS>SUBSTRUCTURE
1   ZINC000003791925 1     RESIDUE    1   A     ZIN   1
