@<TRIPOS>MOLECULE
ZINC000038941844
46    48    1     0     0
SMALL
USER_CHARGES
@<TRIPOS>ATOM
1      O1      0.2052    0.3040    1.0429 O.2      1 ZINC000038941844   -0.5600
2      C2      0.0535    1.4051    0.5497 C.2      1 ZINC000038941844    0.7000
3      N3      1.0951    2.0324   -0.0317 N.am     1 ZINC000038941844   -0.6500
4      C4      2.3744    1.4609    0.0186 C.ar     1 ZINC000038941844    0.0200
5      C5      2.5224    0.0831   -0.0305 C.ar     1 ZINC000038941844   -0.0300
6      C6      3.7846   -0.4787    0.0187 C.ar     1 ZINC000038941844   -0.2200
7      C7      4.9021    0.3308    0.1169 C.ar     1 ZINC000038941844    0.0800
8      Cl8     6.4843   -0.3808    0.1777 Cl       1 ZINC000038941844   -0.0800
9      C9      4.7615    1.7067    0.1664 C.ar     1 ZINC000038941844   -0.8200
10     S10     6.1875    2.7340    0.2916 S.o2     1 ZINC000038941844    2.6900
11     O11     5.7505    3.9592    0.8635 O.2      1 ZINC000038941844   -0.9300
12     O12     7.2115    1.9312    0.8628 O.2      1 ZINC000038941844   -0.9600
13     N13     6.6751    3.0858   -1.2514 N.am     1 ZINC000038941844   -1.0100
14     C14     7.6307    2.2195   -1.9588 C.3      1 ZINC000038941844    0.1000
15     C15     7.0533    1.8839   -3.3378 C.3      1 ZINC000038941844   -0.0200
16     N16     6.7241    3.1277   -4.0455 N.4      1 ZINC000038941844   -0.5000
17     H17     7.5444    3.7133   -4.0931 H        1 ZINC000038941844    0.4300
18     H18     6.4137    2.9092   -4.9803 H        1 ZINC000038941844    0.4300
19     C19     5.6565    3.8408   -3.3331 C.3      1 ZINC000038941844   -0.0200
20     C20     6.1603    4.2703   -1.9558 C.3      1 ZINC000038941844    0.1000
21     C21     3.5002    2.2763    0.1122 C.ar     1 ZINC000038941844    0.3400
22     O22     3.3604    3.6281    0.1607 O.3      1 ZINC000038941844   -0.6600
23     N23    -1.1575    1.9958    0.5795 N.am     1 ZINC000038941844   -0.6800
24     C24    -2.2112    1.3973    1.2806 C.ar     1 ZINC000038941844    0.2200
25     C25    -1.9436    0.5308    2.3317 C.ar     1 ZINC000038941844   -0.1300
26     C26    -2.9846   -0.0587    3.0229 C.ar     1 ZINC000038941844   -0.0600
27     C27    -4.2931    0.2123    2.6695 C.ar     1 ZINC000038941844   -0.1700
28     C28    -4.5655    1.0758    1.6212 C.ar     1 ZINC000038941844    0.1300
29     F29    -5.8454    1.3386    1.2777 F        1 ZINC000038941844   -0.1200
30     C30    -3.5267    1.6739    0.9294 C.ar     1 ZINC000038941844   -0.1200
31     Cl31   -3.8665    2.7563   -0.3846 Cl       1 ZINC000038941844   -0.0500
32     H32     0.9597    2.8792   -0.4849 H        1 ZINC000038941844    0.4100
33     H33     1.6516   -0.5512   -0.1069 H        1 ZINC000038941844    0.1300
34     H34     3.8985   -1.5520   -0.0193 H        1 ZINC000038941844    0.1200
35     H35     8.5805    2.7412   -2.0764 H        1 ZINC000038941844    0.0900
36     H36     7.7818    1.3010   -1.3916 H        1 ZINC000038941844    0.1300
37     H37     7.7893    1.3223   -3.9132 H        1 ZINC000038941844    0.1400
38     H38     6.1510    1.2842   -3.2180 H        1 ZINC000038941844    0.1400
39     H39     5.3632    4.7212   -3.9049 H        1 ZINC000038941844    0.1400
40     H40     4.7964    3.1819   -3.2133 H        1 ZINC000038941844    0.1400
41     H41     5.3411    4.7095   -1.3867 H        1 ZINC000038941844    0.1500
42     H42     6.9627    4.9991   -2.0703 H        1 ZINC000038941844    0.0900
43     H43    -1.2991    2.8356    0.1153 H        1 ZINC000038941844    0.4100
44     H44    -0.9218    0.3172    2.6088 H        1 ZINC000038941844    0.1700
45     H45    -2.7756   -0.7327    3.8405 H        1 ZINC000038941844    0.1400
46     H46    -5.1047   -0.2503    3.2115 H        1 ZINC000038941844    0.1500
@<TRIPOS>BOND
1     1     2     2
2     2     3     am
3     2     23    am
4     3     4     1
5     3     32    1
6     4     21    ar
7     4     5     ar
8     5     6     ar
9     5     33    1
10    6     7     ar
11    6     34    1
12    7     8     1
13    7     9     ar
14    9     10    1
15    9     21    ar
16    10    11    2
17    10    12    2
18    10    13    am
19    13    20    1
20    13    14    1
21    14    15    1
22    14    35    1
23    14    36    1
24    15    16    1
25    15    37    1
26    15    38    1
27    16    17    1
28    16    18    1
29    16    19    1
30    19    20    1
31    19    39    1
32    19    40    1
33    20    41    1
34    20    42    1
35    21    22    1
36    23    24    1
37    23    43    1
38    24    30    ar
39    24    25    ar
40    25    26    ar
41    25    44    1
42    26    27    ar
43    26    45    1
44    27    28    ar
45    27    46    1
46    28    29    1
47    28    30    ar
48    30    31    1
@<TRIPOS>SUBSTRUCTURE
1   ZINC000038941844 1     RESIDUE    1   A     ZIN   1
