@<TRIPOS>MOLECULE
ZINC000113139653
70    74    1     0     0
SMALL
USER_CHARGES
@<TRIPOS>ATOM
1      C1      0.5161    1.2752   -0.4484 C.3      1 ZINC000113139653    0.0300
2      O2      0.3881   -0.1439   -0.3390 O.3      1 ZINC000113139653   -0.4000
3      C3     -0.9630   -0.6002   -0.2479 C.3      1 ZINC000113139653    0.0600
4      C4     -0.9795   -2.1260   -0.1355 C.3      1 ZINC000113139653    0.0600
5      N5     -0.3466   -2.5309    1.1268 N.3      1 ZINC000113139653   -0.6800
6      C6     -0.3443   -3.9929    1.2694 C.3      1 ZINC000113139653    0.1000
7      C7      0.3113   -4.3695    2.5730 C.ar     1 ZINC000113139653   -0.1300
8      C8      1.6802   -4.5908    2.6301 C.ar     1 ZINC000113139653   -0.0600
9      C9      2.2441   -4.9343    3.8463 C.ar     1 ZINC000113139653   -0.1600
10     C10     1.4211   -5.0457    4.9672 C.ar     1 ZINC000113139653    0.1900
11     C11     2.0074   -5.4118    6.2740 C.2      1 ZINC000113139653   -0.1100
12     C12     1.3131   -5.5506    7.4057 C.2      1 ZINC000113139653   -0.0800
13     C13     2.0638   -5.9041    8.5399 C.ar     1 ZINC000113139653    0.1600
14     N14     1.6324   -6.1099    9.8022 N.ar     1 ZINC000113139653   -0.4700
15     C15     2.4449   -6.4383   10.7759 C.ar     1 ZINC000113139653    0.1600
16     C16     3.8044   -6.5936   10.5617 C.ar     1 ZINC000113139653   -0.2400
17     C17     4.3128   -6.3965    9.2862 C.ar     1 ZINC000113139653    0.2000
18     O18     5.6397   -6.5403    9.0385 O.3      1 ZINC000113139653   -0.2400
19     C19     6.4627   -6.7886   10.0924 C.ar     1 ZINC000113139653    0.0500
20     C20     7.1382   -5.7445   10.7053 C.ar     1 ZINC000113139653   -0.0800
21     C21     7.9748   -5.9957   11.7756 C.ar     1 ZINC000113139653   -0.0700
22     C22     8.1395   -7.2940   12.2388 C.ar     1 ZINC000113139653    0.1600
23     N23     8.9873   -7.5482   13.3242 N.am     1 ZINC000113139653   -0.6200
24     C24    10.1704   -6.9098   13.4190 C.2      1 ZINC000113139653    0.5100
25     S25    10.7016   -5.8978   12.1444 S.2      1 ZINC000113139653   -0.4700
26     N26    10.9354   -7.0680   14.5173 N.am     1 ZINC000113139653   -0.6400
27     C27    12.1186   -6.4296   14.6121 C.2      1 ZINC000113139653    0.4800
28     O28    12.4948   -5.7129   13.7094 O.2      1 ZINC000113139653   -0.3900
29     C29    12.9740   -6.6065   15.8401 C.3      1 ZINC000113139653   -0.0900
30     C30    14.2338   -5.7921   15.6965 C.ar     1 ZINC000113139653   -0.0900
31     C31    15.3545   -6.3510   15.1111 C.ar     1 ZINC000113139653   -0.0700
32     C32    16.5104   -5.6050   14.9788 C.ar     1 ZINC000113139653   -0.1500
33     C33    16.5454   -4.2973   15.4324 C.ar     1 ZINC000113139653    0.1100
34     F34    17.6747   -3.5670   15.3032 F        1 ZINC000113139653   -0.1400
35     C35    15.4221   -3.7385   16.0181 C.ar     1 ZINC000113139653   -0.1500
36     C36    14.2659   -4.4848   16.1449 C.ar     1 ZINC000113139653   -0.0700
37     C37     7.4630   -8.3408   11.6259 C.ar     1 ZINC000113139653   -0.1500
38     C38     6.6220   -8.0882   10.5584 C.ar     1 ZINC000113139653    0.1000
39     F39     5.9631   -9.1056    9.9617 F        1 ZINC000113139653   -0.1200
40     C40     3.4247   -6.0454    8.2568 C.ar     1 ZINC000113139653   -0.2200
41     S41     3.7109   -5.7312    6.5500 S.3      1 ZINC000113139653    0.1700
42     N42     0.1149   -4.8249    4.8695 N.ar     1 ZINC000113139653   -0.4700
43     C43    -0.4449   -4.4921    3.7247 C.ar     1 ZINC000113139653    0.1300
44     H44     1.5713    1.5409   -0.5129 H        1 ZINC000113139653    0.0900
45     H45    -0.0005    1.6186   -1.3446 H        1 ZINC000113139653    0.0400
46     H46     0.0752    1.7485    0.4290 H        1 ZINC000113139653    0.0400
47     H47    -1.4346   -0.1659    0.6336 H        1 ZINC000113139653    0.0600
48     H48    -1.5103   -0.2957   -1.1400 H        1 ZINC000113139653    0.0600
49     H49    -2.0099   -2.4807   -0.1554 H        1 ZINC000113139653    0.0900
50     H50    -0.4303   -2.5579   -0.9722 H        1 ZINC000113139653    0.0400
51     H51     0.5888   -2.1592    1.1979 H        1 ZINC000113139653    0.3500
52     H52    -1.3704   -4.3606    1.2592 H        1 ZINC000113139653    0.0900
53     H53     0.2093   -4.4378    0.4425 H        1 ZINC000113139653    0.0400
54     H54     2.2918   -4.4973    1.7449 H        1 ZINC000113139653    0.1400
55     H55     3.3060   -5.1139    3.9264 H        1 ZINC000113139653    0.1400
56     H56     0.2444   -5.4005    7.4470 H        1 ZINC000113139653    0.1700
57     H57     2.0457   -6.5910   11.7677 H        1 ZINC000113139653    0.1700
58     H58     4.4596   -6.8640   11.3765 H        1 ZINC000113139653    0.1500
59     H59     7.0106   -4.7342   10.3456 H        1 ZINC000113139653    0.1500
60     H60     8.5011   -5.1818   12.2520 H        1 ZINC000113139653    0.1600
61     H61     8.7229   -8.1837   14.0077 H        1 ZINC000113139653    0.4100
62     H62    10.6345   -7.6414   15.2395 H        1 ZINC000113139653    0.4100
63     H63    12.4226   -6.2710   16.7184 H        1 ZINC000113139653    0.1100
64     H64    13.2329   -7.6592   15.9540 H        1 ZINC000113139653    0.1100
65     H65    15.3270   -7.3710   14.7574 H        1 ZINC000113139653    0.1300
66     H66    17.3861   -6.0421   14.5221 H        1 ZINC000113139653    0.1400
67     H67    15.4484   -2.7186   16.3725 H        1 ZINC000113139653    0.1400
68     H68    13.3895   -4.0490   16.6014 H        1 ZINC000113139653    0.1300
69     H69     7.5907   -9.3510   11.9859 H        1 ZINC000113139653    0.1500
70     H70    -1.5103   -4.3198    3.6830 H        1 ZINC000113139653    0.1600
@<TRIPOS>BOND
1     1     2     1
2     1     44    1
3     1     45    1
4     1     46    1
5     2     3     1
6     3     4     1
7     3     47    1
8     3     48    1
9     4     5     1
10    4     49    1
11    4     50    1
12    5     6     1
13    5     51    1
14    6     7     1
15    6     52    1
16    6     53    1
17    7     43    ar
18    7     8     ar
19    8     9     ar
20    8     54    1
21    9     10    ar
22    9     55    1
23    10    11    1
24    10    42    ar
25    11    41    1
26    11    12    2
27    12    13    1
28    12    56    1
29    13    40    ar
30    13    14    ar
31    14    15    ar
32    15    16    ar
33    15    57    1
34    16    17    ar
35    16    58    1
36    17    18    1
37    17    40    ar
38    18    19    1
39    19    38    ar
40    19    20    ar
41    20    21    ar
42    20    59    1
43    21    22    ar
44    21    60    1
45    22    23    1
46    22    37    ar
47    23    24    am
48    23    61    1
49    24    25    2
50    24    26    am
51    26    27    am
52    26    62    1
53    27    28    2
54    27    29    1
55    29    30    1
56    29    63    1
57    29    64    1
58    30    36    ar
59    30    31    ar
60    31    32    ar
61    31    65    1
62    32    33    ar
63    32    66    1
64    33    34    1
65    33    35    ar
66    35    36    ar
67    35    67    1
68    36    68    1
69    37    38    ar
70    37    69    1
71    38    39    1
72    40    41    1
73    42    43    ar
74    43    70    1
@<TRIPOS>SUBSTRUCTURE
1   ZINC000113139653 1     RESIDUE    1   A     ZIN   1
