@<TRIPOS>MOLECULE
ZINC000003817105
  62   65    0    0    0
SMALL
USER_CHARGES
NO_NAME
@<TRIPOS>ATOM
    1 C1       -3.8477     4.0102    -3.0387 C.3    1 <0>       0.0300
    2 O2       -3.2976     2.7043    -3.2232 O.3    1 <0>      -0.3700
    3 C3       -4.0917     1.6551    -2.6659 C.3    1 <0>       0.0400
    4 C4       -3.4206     0.3294    -2.9175 C.2    1 <0>       0.5100
    5 O5       -2.3661     0.2873    -3.5152 O.2    1 <0>      -0.5200
    6 N6       -3.9922    -0.8094    -2.4783 N.am   1 <0>      -0.7300
    7 C7       -3.3398    -2.0981    -2.7229 C.3    1 <0>       0.1500
    8 C8       -4.1772    -3.2046    -2.1352 C.2    1 <0>      -0.1700
    9 C9       -4.5698    -4.2158    -2.8981 C.2    1 <0>      -0.0900
   10 C10      -5.3908    -5.3007    -2.3219 C.ar   1 <0>      -0.0700
   11 C11      -5.7577    -5.2536    -0.9672 C.ar   1 <0>      -0.0700
   12 C12      -6.5130    -6.2401    -0.4138 C.ar   1 <0>      -0.1000
   13 C13      -6.9352    -7.3225    -1.1994 C.ar   1 <0>       0.1900
   14 N14      -7.6813    -8.3148    -0.6915 N.ar   1 <0>      -0.5500
   15 C15      -8.0634    -9.3158    -1.4484 C.ar   1 <0>       0.3500
   16 N16      -7.7475    -9.4123    -2.7299 N.ar   1 <0>      -0.5800
   17 C17      -7.0137    -8.4867    -3.3336 C.ar   1 <0>       0.4700
   18 N18      -6.6916    -8.5984    -4.6696 N.pl3  1 <0>      -0.6300
   19 C19      -6.9882    -9.7764    -5.3650 C.ar   1 <0>       0.1200
   20 C20      -6.1453   -10.2168    -6.3768 C.ar   1 <0>      -0.1100
   21 C21      -6.4386   -11.3791    -7.0625 C.ar   1 <0>      -0.1700
   22 C22      -7.5751   -12.1067    -6.7406 C.ar   1 <0>       0.1100
   23 O23      -7.8631   -13.2511    -7.4158 O.3    1 <0>      -0.2500
   24 C24      -6.9236   -13.7447    -8.2646 C.ar   1 <0>       0.0300
   25 C25      -5.8274   -14.4463    -7.7730 C.ar   1 <0>      -0.0800
   26 C26      -4.8958   -14.9302    -8.6775 C.ar   1 <0>      -0.1600
   27 C27      -5.0844   -14.7022   -10.0276 C.ar   1 <0>       0.1300
   28 C28      -4.0760   -15.2252   -11.0178 C.3    1 <0>      -0.1100
   29 N29      -6.1352   -14.0334   -10.4611 N.ar   1 <0>      -0.4700
   30 C30      -7.0469   -13.5610    -9.6346 C.ar   1 <0>       0.1100
   31 C31      -8.4180   -11.6672    -5.7296 C.ar   1 <0>      -0.0900
   32 C32      -9.6521   -12.4585    -5.3804 C.3    1 <0>      -0.1100
   33 C33      -8.1230   -10.5085    -5.0395 C.ar   1 <0>      -0.0800
   34 C34      -6.5702    -7.3794    -2.5676 C.ar   1 <0>      -0.1900
   35 C35      -5.7992    -6.3567    -3.1242 C.ar   1 <0>      -0.0600
   36 H36      -3.1864     4.7501    -3.4895 H      1 <0>       0.0900
   37 H37      -4.8278     4.0620    -3.5129 H      1 <0>       0.0500
   38 H38      -3.9486     4.2147    -1.9728 H      1 <0>       0.0500
   39 H39      -4.1977     1.8107    -1.5922 H      1 <0>       0.0800
   40 H40      -5.0768     1.6580    -3.1324 H      1 <0>       0.0800
   41 H41      -4.8356    -0.7757    -2.0002 H      1 <0>       0.4000
   42 H42      -3.2339    -2.2537    -3.7965 H      1 <0>       0.0800
   43 H43      -2.3547    -2.1010    -2.2564 H      1 <0>       0.0800
   44 H44      -4.4577    -3.1741    -1.0927 H      1 <0>       0.1200
   45 H45      -4.2894    -4.2463    -3.9406 H      1 <0>       0.1300
   46 H46      -5.4356    -4.4231    -0.3566 H      1 <0>       0.1400
   47 H47      -6.7869    -6.1902     0.6297 H      1 <0>       0.1400
   48 H48      -8.6630   -10.0972    -1.0054 H      1 <0>       0.2000
   49 H49      -6.2593    -7.8606    -5.1276 H      1 <0>       0.4200
   50 H50      -5.2607    -9.6504    -6.6277 H      1 <0>       0.1300
   51 H51      -5.7833   -11.7216    -7.8497 H      1 <0>       0.1300
   52 H52      -5.7052   -14.6094    -6.7124 H      1 <0>       0.1400
   53 H53      -4.0324   -15.4790    -8.3315 H      1 <0>       0.1400
   54 H54      -4.3614   -16.2294   -11.3310 H      1 <0>       0.0800
   55 H55      -4.0458   -14.5683   -11.8871 H      1 <0>       0.0800
   56 H56      -3.0912   -15.2562   -10.5515 H      1 <0>       0.0800
   57 H57      -7.8941   -13.0183   -10.0270 H      1 <0>       0.1600
   58 H58      -9.4086   -13.1902    -4.6101 H      1 <0>       0.0700
   59 H59     -10.4236   -11.7836    -5.0097 H      1 <0>       0.0700
   60 H60     -10.0166   -12.9740    -6.2689 H      1 <0>       0.0700
   61 H61      -8.7788   -10.1667    -4.2524 H      1 <0>       0.1600
   62 H62      -5.5202    -6.3894    -4.1670 H      1 <0>       0.1300
@<TRIPOS>BOND
   1    1    2 1
   2    1   36 1
   3    1   37 1
   4    1   38 1
   5    2    3 1
   6    3    4 1
   7    3   39 1
   8    3   40 1
   9    4    5 2
  10    4    6 am
  11    6    7 1
  12    6   41 1
  13    7    8 1
  14    7   42 1
  15    7   43 1
  16    8    9 2
  17    8   44 1
  18    9   10 1
  19    9   45 1
  20   10   35 ar
  21   10   11 ar
  22   11   12 ar
  23   11   46 1
  24   12   13 ar
  25   12   47 1
  26   13   34 ar
  27   13   14 ar
  28   14   15 ar
  29   15   16 ar
  30   15   48 1
  31   16   17 ar
  32   17   18 1
  33   17   34 ar
  34   18   19 1
  35   18   49 1
  36   19   33 ar
  37   19   20 ar
  38   20   21 ar
  39   20   50 1
  40   21   22 ar
  41   21   51 1
  42   22   23 1
  43   22   31 ar
  44   23   24 1
  45   24   30 ar
  46   24   25 ar
  47   25   26 ar
  48   25   52 1
  49   26   27 ar
  50   26   53 1
  51   27   28 1
  52   27   29 ar
  53   28   54 1
  54   28   55 1
  55   28   56 1
  56   29   30 ar
  57   30   57 1
  58   31   32 1
  59   31   33 ar
  60   32   58 1
  61   32   59 1
  62   32   60 1
  63   33   61 1
  64   34   35 ar
  65   35   62 1
