@<TRIPOS>MOLECULE
ZINC000003950145
56    60    1     0     0
SMALL
USER_CHARGES
@<TRIPOS>ATOM
1      C1      0.5235    1.2448   -0.2899 C.3      1 ZINC000003950145   -0.0800
2      N2      0.0775   -0.1227    0.0087 N.4      1 ZINC000003950145   -0.3800
3      H3      0.2187   -0.7070   -0.8017 H        1 ZINC000003950145    0.4200
4      C4      0.8527   -0.6551    1.1373 C.3      1 ZINC000003950145   -0.0800
5      C5     -1.3491   -0.1070    0.3586 C.3      1 ZINC000003950145    0.1100
6      C6     -1.5592    0.7622    1.5716 C.ar     1 ZINC000003950145   -0.1200
7      C7     -0.4810    1.3888    2.1680 C.ar     1 ZINC000003950145   -0.1600
8      C8     -0.6736    2.1861    3.2807 C.ar     1 ZINC000003950145   -0.1000
9      C9     -1.9446    2.3572    3.7967 C.ar     1 ZINC000003950145   -0.1000
10     C10    -3.0230    1.7313    3.1998 C.ar     1 ZINC000003950145   -0.1000
11     C11    -2.8308    0.9374    2.0845 C.ar     1 ZINC000003950145   -0.0900
12     C12    -2.1558    0.4522   -0.8151 C.3      1 ZINC000003950145   -0.1300
13     C13    -1.9423   -0.4296   -2.0474 C.3      1 ZINC000003950145   -0.1200
14     C14    -2.4015   -1.8544   -1.7405 C.3      1 ZINC000003950145    0.1900
15     C15    -1.5998   -2.4147   -0.5660 C.3      1 ZINC000003950145   -0.1600
16     C16    -1.8145   -1.5320    0.6656 C.3      1 ZINC000003950145   -0.1300
17     O17    -3.7949   -1.8513   -1.4132 O.3      1 ZINC000003950145   -0.3500
18     C18    -4.3791   -3.1532   -1.3136 C.3      1 ZINC000003950145    0.0600
19     C19    -4.4711   -3.7814   -2.7115 C.3      1 ZINC000003950145   -0.0900
20     C20    -3.1379   -3.5980   -3.3919 C.2      1 ZINC000003950145   -0.1300
21     C21    -2.1981   -2.7266   -2.9552 C.2      1 ZINC000003950145    0.0200
22     N22    -1.1021   -2.7824   -3.7706 N.pl3    1 ZINC000003950145   -0.5800
23     C23    -1.3103   -3.7004   -4.7625 C.ar     1 ZINC000003950145    0.0900
24     C24    -0.5131   -4.1195   -5.8246 C.ar     1 ZINC000003950145   -0.1000
25     C25    -1.0366   -5.0886   -6.6627 C.ar     1 ZINC000003950145   -0.1300
26     C26    -2.2988   -5.6300   -6.4692 C.ar     1 ZINC000003950145    0.0800
27     F27    -2.7466   -6.5733   -7.3264 F        1 ZINC000003950145   -0.1400
28     C28    -3.1128   -5.2317   -5.4221 C.ar     1 ZINC000003950145   -0.1000
29     C29    -2.6027   -4.2528   -4.5634 C.ar     1 ZINC000003950145   -0.0800
30     H30     1.6005    1.3170   -0.1381 H        1 ZINC000003950145    0.1300
31     H31     0.2856    1.4865   -1.3258 H        1 ZINC000003950145    0.1200
32     H32     0.0154    1.9455    0.3727 H        1 ZINC000003950145    0.1400
33     H33     0.8669   -1.7438    1.0868 H        1 ZINC000003950145    0.1200
34     H34     1.8733   -0.2758    1.0881 H        1 ZINC000003950145    0.1300
35     H35     0.3929   -0.3408    2.0743 H        1 ZINC000003950145    0.1400
36     H36     0.5120    1.2552    1.7648 H        1 ZINC000003950145    0.1400
37     H37     0.1688    2.6751    3.7470 H        1 ZINC000003950145    0.1400
38     H38    -2.0951    2.9795    4.6664 H        1 ZINC000003950145    0.1400
39     H39    -4.0159    1.8647    3.6031 H        1 ZINC000003950145    0.1400
40     H40    -3.6733    0.4484    1.6181 H        1 ZINC000003950145    0.1400
41     H41    -3.2144    0.4636   -0.5556 H        1 ZINC000003950145    0.1200
42     H42    -1.8242    1.4674   -1.0329 H        1 ZINC000003950145    0.1000
43     H43    -2.5205   -0.0334   -2.8821 H        1 ZINC000003950145    0.1100
44     H44    -0.8843   -0.4374   -2.3096 H        1 ZINC000003950145    0.0700
45     H45    -1.9343   -3.4291   -0.3487 H        1 ZINC000003950145    0.1000
46     H46    -0.5406   -2.4286   -0.8228 H        1 ZINC000003950145    0.0700
47     H47    -1.2401   -1.9296    1.5023 H        1 ZINC000003950145    0.1000
48     H48    -2.8733   -1.5206    0.9244 H        1 ZINC000003950145    0.1200
49     H49    -3.7598   -3.7812   -0.6731 H        1 ZINC000003950145    0.0600
50     H50    -5.3782   -3.0713   -0.8856 H        1 ZINC000003950145    0.1100
51     H51    -4.6973   -4.8440   -2.6239 H        1 ZINC000003950145    0.0900
52     H52    -5.2509   -3.2842   -3.2884 H        1 ZINC000003950145    0.0900
53     H53    -0.2982   -2.2506   -3.6620 H        1 ZINC000003950145    0.4100
54     H54     0.4712   -3.7059   -5.9874 H        1 ZINC000003950145    0.1400
55     H55    -0.4424   -5.4345   -7.4956 H        1 ZINC000003950145    0.1400
56     H56    -4.0950   -5.6562   -5.2761 H        1 ZINC000003950145    0.1500
@<TRIPOS>BOND
1     1     2     1
2     1     30    1
3     1     31    1
4     1     32    1
5     2     3     1
6     2     4     1
7     2     5     1
8     4     33    1
9     4     34    1
10    4     35    1
11    5     16    1
12    5     6     1
13    5     12    1
14    6     11    ar
15    6     7     ar
16    7     8     ar
17    7     36    1
18    8     9     ar
19    8     37    1
20    9     10    ar
21    9     38    1
22    10    11    ar
23    10    39    1
24    11    40    1
25    12    13    1
26    12    41    1
27    12    42    1
28    13    14    1
29    13    43    1
30    13    44    1
31    14    21    1
32    14    15    1
33    14    17    1
34    15    16    1
35    15    45    1
36    15    46    1
37    16    47    1
38    16    48    1
39    17    18    1
40    18    19    1
41    18    49    1
42    18    50    1
43    19    20    1
44    19    51    1
45    19    52    1
46    20    29    1
47    20    21    2
48    21    22    1
49    22    23    1
50    22    53    1
51    23    29    ar
52    23    24    ar
53    24    25    ar
54    24    54    1
55    25    26    ar
56    25    55    1
57    26    27    1
58    26    28    ar
59    28    29    ar
60    28    56    1
@<TRIPOS>SUBSTRUCTURE
1   ZINC000003950145 1     RESIDUE    1   A     ZIN   1
