@<TRIPOS>MOLECULE
ZINC000002017274
48    50    1     0     0
SMALL
USER_CHARGES
@<TRIPOS>ATOM
1      C1     -0.0173    1.4248    0.0099 C.3      1 ZINC000002017274    0.0200
2      O2      0.0021   -0.0041    0.0020 O.3      1 ZINC000002017274   -0.3000
3      C3      0.6062   -0.6075   -1.0565 C.ar     1 ZINC000002017274    0.1500
4      C4      1.1731    0.1601   -2.0626 C.ar     1 ZINC000002017274   -0.2300
5      C5      1.7874   -0.4523   -3.1388 C.ar     1 ZINC000002017274   -0.0100
6      C6      2.4022    0.3858   -4.2300 C.3      1 ZINC000002017274   -0.0700
7      C7      3.8647    0.6764   -3.8871 C.3      1 ZINC000002017274    0.1400
8      H8      3.9183    1.1366   -2.9005 H        1 ZINC000002017274    0.0600
9      N9      4.6181   -0.5814   -3.8759 N.3      1 ZINC000002017274   -0.6800
10     C10     6.0563   -0.3124   -3.7183 C.3      1 ZINC000002017274    0.0500
11     C11     6.5799    0.3029   -5.0162 C.3      1 ZINC000002017274   -0.0800
12     C12     5.7013    1.4556   -5.4305 C.ar     1 ZINC000002017274   -0.0600
13     C13     6.1936    2.3588   -6.3606 C.ar     1 ZINC000002017274   -0.1300
14     C14     5.4207    3.4298   -6.7733 C.ar     1 ZINC000002017274    0.0800
15     O15     5.9079    4.3128   -7.6856 O.3      1 ZINC000002017274   -0.4900
16     C16     4.1421    3.5984   -6.2506 C.ar     1 ZINC000002017274    0.0800
17     O17     3.3731    4.6460   -6.6514 O.3      1 ZINC000002017274   -0.4900
18     C18     3.6564    2.6954   -5.3217 C.ar     1 ZINC000002017274   -0.1300
19     C19     4.4362    1.6239   -4.9094 C.ar     1 ZINC000002017274   -0.0700
20     C20     1.8397   -1.8314   -3.2167 C.ar     1 ZINC000002017274   -0.2300
21     C21     1.2753   -2.6062   -2.2148 C.ar     1 ZINC000002017274    0.1500
22     O22     1.3272   -3.9630   -2.2923 O.3      1 ZINC000002017274   -0.3000
23     C23     1.9789   -4.5231   -3.4341 C.3      1 ZINC000002017274    0.0200
24     C24     0.6613   -1.9944   -1.1284 C.ar     1 ZINC000002017274    0.0200
25     O25     0.1062   -2.7513   -0.1429 O.3      1 ZINC000002017274   -0.3100
26     C26     0.9504   -3.1106    0.9526 C.3      1 ZINC000002017274    0.0400
27     H27     1.0053    1.8021    0.0021 H        1 ZINC000002017274    0.0600
28     H28    -0.5445    1.7859   -0.8732 H        1 ZINC000002017274    0.0600
29     H29    -0.5275    1.7763    0.9067 H        1 ZINC000002017274    0.1000
30     H30     1.1343    1.2379   -2.0054 H        1 ZINC000002017274    0.1300
31     H31     2.3510   -0.1542   -5.1754 H        1 ZINC000002017274    0.0900
32     H32     1.8561    1.3250   -4.3180 H        1 ZINC000002017274    0.0800
33     H33     4.2837   -1.1968   -3.1495 H        1 ZINC000002017274    0.3500
34     H34     6.2104    0.3844   -2.8944 H        1 ZINC000002017274    0.0400
35     H35     6.5833   -1.2450   -3.5164 H        1 ZINC000002017274    0.0800
36     H36     7.5978    0.6610   -4.8620 H        1 ZINC000002017274    0.0800
37     H37     6.5789   -0.4532   -5.8013 H        1 ZINC000002017274    0.0900
38     H38     7.1862    2.2258   -6.7649 H        1 ZINC000002017274    0.1300
39     H39     5.7163    4.0761   -8.6034 H        1 ZINC000002017274    0.3900
40     H40     2.8186    4.4554   -7.4204 H        1 ZINC000002017274    0.3900
41     H41     2.6642    2.8250   -4.9152 H        1 ZINC000002017274    0.1400
42     H42     2.3206   -2.3061   -4.0592 H        1 ZINC000002017274    0.1400
43     H43     1.9499   -5.6109   -3.3718 H        1 ZINC000002017274    0.1000
44     H44     1.4681   -4.1973   -4.3402 H        1 ZINC000002017274    0.0600
45     H45     3.0159   -4.1882   -3.4612 H        1 ZINC000002017274    0.0600
46     H46     1.3109   -2.2075    1.4450 H        1 ZINC000002017274    0.0400
47     H47     0.3852   -3.7118    1.6648 H        1 ZINC000002017274    0.0900
48     H48     1.7989   -3.6868    0.5837 H        1 ZINC000002017274    0.0400
@<TRIPOS>BOND
1     1     2     1
2     1     27    1
3     1     28    1
4     1     29    1
5     2     3     1
6     3     24    ar
7     3     4     ar
8     4     5     ar
9     4     30    1
10    5     6     1
11    5     20    ar
12    6     7     1
13    6     31    1
14    6     32    1
15    7     8     1
16    7     19    1
17    7     9     1
18    9     10    1
19    9     33    1
20    10    11    1
21    10    34    1
22    10    35    1
23    11    12    1
24    11    36    1
25    11    37    1
26    12    19    ar
27    12    13    ar
28    13    14    ar
29    13    38    1
30    14    15    1
31    14    16    ar
32    15    39    1
33    16    17    1
34    16    18    ar
35    17    40    1
36    18    19    ar
37    18    41    1
38    20    21    ar
39    20    42    1
40    21    22    1
41    21    24    ar
42    22    23    1
43    23    43    1
44    23    44    1
45    23    45    1
46    24    25    1
47    25    26    1
48    26    46    1
49    26    47    1
50    26    48    1
@<TRIPOS>SUBSTRUCTURE
1   ZINC000002017274 1     RESIDUE    1   A     ZIN   1
