@<TRIPOS>MOLECULE
ZINC000001494544
53    56    1     0     0
SMALL
USER_CHARGES
@<TRIPOS>ATOM
1      C1     -2.0399   -7.1661    2.6978 C.3      1 ZINC000001494544   -0.1500
2      C2     -2.2962   -5.9292    1.8344 C.3      1 ZINC000001494544   -0.1200
3      C3     -0.9613   -5.2775    1.4681 C.3      1 ZINC000001494544   -0.0300
4      C4     -1.2054   -4.1300    0.5222 C.2      1 ZINC000001494544    0.2000
5      N5     -1.3367   -4.2351   -0.7759 N.2      1 ZINC000001494544   -0.4700
6      C6     -1.5416   -3.0312   -1.3077 C.2      1 ZINC000001494544   -0.0900
7      C7     -1.7414   -2.7260   -2.7699 C.3      1 ZINC000001494544    0.3900
8      F8     -2.9923   -2.1275   -2.9547 F        1 ZINC000001494544   -0.1600
9      F9     -0.7381   -1.8536   -3.2054 F        1 ZINC000001494544   -0.1500
10     C10    -1.6732   -4.0246   -3.5759 C.3      1 ZINC000001494544    0.4400
11     F11    -2.6764   -4.8970   -3.1404 F        1 ZINC000001494544   -0.1600
12     F12    -1.8586   -3.7412   -4.9333 F        1 ZINC000001494544   -0.1800
13     F13    -0.4222   -4.6231   -3.3911 F        1 ZINC000001494544   -0.1500
14     C14    -1.5384   -2.1147   -0.2768 C.2      1 ZINC000001494544    0.0300
15     C15    -1.7258   -0.6683   -0.3857 C.2      1 ZINC000001494544    0.5500
16     O16    -1.6993    0.0300    0.6201 O.co2    1 ZINC000001494544   -0.6800
17     O17    -1.9093   -0.1554   -1.4826 O.co2    1 ZINC000001494544   -0.6500
18     N18    -1.3277   -2.8411    0.8813 N.pl3    1 ZINC000001494544   -0.4100
19     C19    -1.2444   -2.3049    2.2421 C.3      1 ZINC000001494544    0.1500
20     C20     0.1977   -2.0401    2.5903 C.ar     1 ZINC000001494544   -0.1000
21     C21     0.9219   -2.9864    3.2929 C.ar     1 ZINC000001494544   -0.1400
22     C22     2.2428   -2.7494    3.6145 C.ar     1 ZINC000001494544   -0.1100
23     C23     2.8473   -1.5537    3.2296 C.ar     1 ZINC000001494544   -0.0500
24     C24     4.2661   -1.2934    3.5716 C.ar     1 ZINC000001494544   -0.0300
25     C25     4.7163   -1.4760    4.8761 C.ar     1 ZINC000001494544   -0.1100
26     C26     6.0386   -1.2328    5.1902 C.ar     1 ZINC000001494544   -0.1400
27     C27     6.9228   -0.8074    4.2141 C.ar     1 ZINC000001494544   -0.1300
28     C28     6.4922   -0.6214    2.9153 C.ar     1 ZINC000001494544   -0.1100
29     C29     5.1642   -0.8670    2.5807 C.ar     1 ZINC000001494544    0.0600
30     C30     4.6975   -0.6690    1.1866 C.2      1 ZINC000001494544    0.0600
31     N31     3.4645   -0.8580    0.7281 N.2      1 ZINC000001494544   -0.3400
32     N32     3.4708   -0.5786   -0.5305 N.pl3    1 ZINC000001494544   -0.1700
33     N33     4.6582   -0.2224   -0.8775 N.2      1 ZINC000001494544   -0.2000
34     N34     5.4297   -0.2626    0.1547 N.2      1 ZINC000001494544   -0.3700
35     C35     2.1127   -0.6039    2.5213 C.ar     1 ZINC000001494544    0.0100
36     C36     0.7938   -0.8540    2.2011 C.ar     1 ZINC000001494544   -0.0900
37     H37    -2.9909   -7.6304    2.9588 H        1 ZINC000001494544    0.0500
38     H38    -1.4290   -7.8771    2.1417 H        1 ZINC000001494544    0.0500
39     H39    -1.5173   -6.8719    3.6080 H        1 ZINC000001494544    0.0500
40     H40    -2.8188   -6.2234    0.9243 H        1 ZINC000001494544    0.0700
41     H41    -2.9071   -5.2182    2.3906 H        1 ZINC000001494544    0.0600
42     H42    -0.4777   -4.9069    2.3719 H        1 ZINC000001494544    0.0800
43     H43    -0.3173   -6.0139    0.9873 H        1 ZINC000001494544    0.0900
44     H44    -1.8092   -1.3746    2.3013 H        1 ZINC000001494544    0.1200
45     H45    -1.6607   -3.0279    2.9436 H        1 ZINC000001494544    0.0800
46     H46     0.4525   -3.9124    3.5905 H        1 ZINC000001494544    0.1100
47     H47     2.8070   -3.4887    4.1636 H        1 ZINC000001494544    0.1100
48     H48     4.0313   -1.8075    5.6425 H        1 ZINC000001494544    0.1200
49     H49     6.3848   -1.3751    6.2033 H        1 ZINC000001494544    0.1100
50     H50     7.9551   -0.6194    4.4697 H        1 ZINC000001494544    0.1100
51     H51     7.1872   -0.2888    2.1584 H        1 ZINC000001494544    0.1300
52     H52     2.5758    0.3243    2.2208 H        1 ZINC000001494544    0.1100
53     H53     0.2238   -0.1191    1.6522 H        1 ZINC000001494544    0.1400
@<TRIPOS>BOND
1     1     2     1
2     1     37    1
3     1     38    1
4     1     39    1
5     2     3     1
6     2     40    1
7     2     41    1
8     3     4     1
9     3     42    1
10    3     43    1
11    4     18    1
12    4     5     2
13    5     6     1
14    6     7     1
15    6     14    2
16    7     8     1
17    7     9     1
18    7     10    1
19    10    11    1
20    10    12    1
21    10    13    1
22    14    15    1
23    14    18    1
24    15    16    ar
25    15    17    ar
26    18    19    1
27    19    20    1
28    19    44    1
29    19    45    1
30    20    36    ar
31    20    21    ar
32    21    22    ar
33    21    46    1
34    22    23    ar
35    22    47    1
36    23    24    1
37    23    35    ar
38    24    29    ar
39    24    25    ar
40    25    26    ar
41    25    48    1
42    26    27    ar
43    26    49    1
44    27    28    ar
45    27    50    1
46    28    29    ar
47    28    51    1
48    29    30    1
49    30    34    1
50    30    31    2
51    31    32    1
52    32    33    1
53    33    34    2
54    35    36    ar
55    35    52    1
56    36    53    1
@<TRIPOS>SUBSTRUCTURE
1   ZINC000001494544 1     RESIDUE    1   A     ZIN   1
