@<TRIPOS>MOLECULE
ZINC000000607309
  54   57    0    0    0
SMALL
USER_CHARGES
NO_NAME
@<TRIPOS>ATOM
    1 C1       -0.3316     1.6697    -0.1102 C.3    1 <0>       0.0600
    2 N2       -0.0970     0.2276    -0.0025 N.am   1 <0>      -0.6400
    3 C3        0.0422    -0.3438     1.2102 C.2    1 <0>       0.5100
    4 O4        0.2365    -1.5376     1.2993 O.2    1 <0>      -0.5100
    5 C5       -0.0434     0.5007     2.4554 C.3    1 <0>      -0.1000
    6 C6        0.1442    -0.3730     3.6688 C.ar   1 <0>      -0.0400
    7 C7        1.4466    -0.6676     4.1257 C.ar   1 <0>      -0.0600
    8 C8        2.7296    -0.2435     3.5891 C.2    1 <0>      -0.1300
    9 C9        3.7811    -0.6902     4.2467 C.2    1 <0>      -0.1800
   10 S10       3.3080    -1.6886     5.6077 S.3    1 <0>       0.1000
   11 C11       1.5978    -1.4796     5.2533 C.ar   1 <0>      -0.1400
   12 C12       0.4665    -1.9817     5.9036 C.ar   1 <0>      -0.0700
   13 C13      -0.7907    -1.6789     5.4362 C.ar   1 <0>      -0.1000
   14 C14      -0.9439    -0.8681     4.3200 C.ar   1 <0>      -0.1100
   15 C15      -0.0137    -0.5933    -1.2130 C.3    1 <0>       0.1200
   16 H16       0.1460    -1.6352    -0.9352 H      1 <0>       0.1200
   17 C17       1.1533    -0.1112    -2.0770 C.3    1 <0>      -0.1200
   18 C18       1.2403    -0.9686    -3.3412 C.3    1 <0>      -0.1300
   19 C19      -0.0641    -0.8458    -4.1314 C.3    1 <0>      -0.1200
   20 C20      -1.2311    -1.3279    -3.2674 C.3    1 <0>      -0.1400
   21 C21      -1.3181    -0.4705    -2.0032 C.3    1 <0>       0.0200
   22 H22      -1.4779     0.5713    -2.2811 H      1 <0>       0.1400
   23 N23      -2.4386    -0.9335    -1.1737 N.4    1 <0>      -0.3900
   24 H24      -2.5148    -0.3659    -0.3430 H      1 <0>       0.4200
   25 C25      -3.7051    -0.8807    -1.9480 C.3    1 <0>      -0.0100
   26 C26      -4.6213    -1.8796    -1.1974 C.3    1 <0>      -0.1400
   27 C27      -3.6440    -3.0058    -0.7895 C.3    1 <0>      -0.1400
   28 C28      -2.2482    -2.3532    -0.8056 C.3    1 <0>      -0.0200
   29 H29       0.6242     2.1893    -0.1770 H      1 <0>       0.0800
   30 H30      -0.9207     1.8763    -1.0037 H      1 <0>       0.0700
   31 H31      -0.8729     2.0165     0.7701 H      1 <0>       0.0900
   32 H32       0.7360     1.2624     2.4321 H      1 <0>       0.1100
   33 H33      -1.0204     0.9819     2.5016 H      1 <0>       0.1100
   34 H34       2.8147     0.3892     2.7179 H      1 <0>       0.1400
   35 H35       4.8043    -0.4695     3.9804 H      1 <0>       0.1700
   36 H36       0.5804    -2.6093     6.7751 H      1 <0>       0.1300
   37 H37      -1.6616    -2.0694     5.9417 H      1 <0>       0.1300
   38 H38      -1.9351    -0.6353     3.9596 H      1 <0>       0.1200
   39 H39       0.9935     0.9306    -2.3548 H      1 <0>       0.0800
   40 H40       2.0826    -0.1987    -1.5140 H      1 <0>       0.0900
   41 H41       2.0717    -0.6251    -3.9567 H      1 <0>       0.0900
   42 H42       1.4000    -2.0104    -3.0633 H      1 <0>       0.0700
   43 H43      -0.2239     0.1960    -4.4092 H      1 <0>       0.0800
   44 H44      -0.0022    -1.4566    -5.0320 H      1 <0>       0.0900
   45 H45      -2.1604    -1.2405    -3.8304 H      1 <0>       0.0900
   46 H46      -1.0714    -2.3698    -2.9896 H      1 <0>       0.0900
   47 H47      -4.1292     0.1231    -1.9239 H      1 <0>       0.1300
   48 H48      -3.5417    -1.2059    -2.9754 H      1 <0>       0.1400
   49 H49      -5.0609    -1.4125    -0.3162 H      1 <0>       0.1000
   50 H50      -5.3974    -2.2635    -1.8595 H      1 <0>       0.1200
   51 H51      -3.8800    -3.3675     0.2113 H      1 <0>       0.1000
   52 H52      -3.6882    -3.8239    -1.5085 H      1 <0>       0.1000
   53 H53      -1.6164    -2.8460    -1.5446 H      1 <0>       0.1300
   54 H54      -1.7934    -2.4247     0.1824 H      1 <0>       0.1300
@<TRIPOS>BOND
   1    1    2 1
   2    1   29 1
   3    1   30 1
   4    1   31 1
   5    2    3 am
   6    2   15 1
   7    3    4 2
   8    3    5 1
   9    5    6 1
  10    5   32 1
  11    5   33 1
  12    6   14 ar
  13    6    7 ar
  14    7   11 ar
  15    7    8 1
  16    8    9 2
  17    8   34 1
  18    9   10 1
  19    9   35 1
  20   10   11 1
  21   11   12 ar
  22   12   13 ar
  23   12   36 1
  24   13   14 ar
  25   13   37 1
  26   14   38 1
  27   15   16 1
  28   15   21 1
  29   15   17 1
  30   17   18 1
  31   17   39 1
  32   17   40 1
  33   18   19 1
  34   18   41 1
  35   18   42 1
  36   19   20 1
  37   19   43 1
  38   19   44 1
  39   20   21 1
  40   20   45 1
  41   20   46 1
  42   21   22 1
  43   21   23 1
  44   23   24 1
  45   23   28 1
  46   23   25 1
  47   25   26 1
  48   25   47 1
  49   25   48 1
  50   26   27 1
  51   26   49 1
  52   26   50 1
  53   27   28 1
  54   27   51 1
  55   27   52 1
  56   28   53 1
  57   28   54 1
