@<TRIPOS>MOLECULE
ZINC000252673365
43    46    1     0     0
SMALL
USER_CHARGES
@<TRIPOS>ATOM
1      O1     -0.0173    1.4248    0.0099 O.3      1 ZINC000252673365   -0.5700
2      C2      0.0021   -0.0041    0.0020 C.3      1 ZINC000252673365    0.1000
3      H3      0.5123   -0.3556   -0.8948 H        1 ZINC000252673365    0.0500
4      C4      0.7421   -0.5109    1.2415 C.3      1 ZINC000252673365   -0.1500
5      C5      0.7628   -2.0407    1.2331 C.3      1 ZINC000252673365   -0.1300
6      C6     -0.6726   -2.5703    1.2440 C.3      1 ZINC000252673365    0.1500
7      H7     -1.1828   -2.2188    2.1408 H        1 ZINC000252673365    0.1000
8      N8     -0.6527   -4.0352    1.2359 N.pl3    1 ZINC000252673365   -0.7000
9      C9     -1.7241   -4.7443    1.7487 C.ar     1 ZINC000252673365    0.5000
10     C10    -1.7198   -6.1486    1.7546 C.ar     1 ZINC000252673365   -0.2700
11     C11    -0.7835   -7.1808    1.3153 C.2      1 ZINC000252673365   -0.1700
12     C12    -1.3527   -8.3658    1.5925 C.2      1 ZINC000252673365    0.0400
13     N13    -2.5784   -8.1681    2.1740 N.pl3    1 ZINC000252673365   -0.5700
14     C14    -2.8323   -6.8283    2.2872 C.ar     1 ZINC000252673365    0.3500
15     N15    -3.8472   -6.1136    2.7656 N.ar     1 ZINC000252673365   -0.5600
16     C16    -3.8118   -4.7908    2.7413 C.ar     1 ZINC000252673365    0.4300
17     C17    -4.9659   -4.0364    3.2862 C.ar     1 ZINC000252673365   -0.0400
18     C18    -4.9614   -2.6424    3.2697 C.ar     1 ZINC000252673365   -0.0700
19     C19    -6.0387   -1.9456    3.7779 C.ar     1 ZINC000252673365   -0.1300
20     C20    -7.1214   -2.6276    4.3034 C.ar     1 ZINC000252673365   -0.1000
21     C21    -7.1313   -4.0107    4.3228 C.ar     1 ZINC000252673365   -0.1300
22     C22    -6.0623   -4.7183    3.8117 C.ar     1 ZINC000252673365   -0.0700
23     N23    -2.7785   -4.1130    2.2520 N.ar     1 ZINC000252673365   -0.5900
24     C24    -1.4126   -2.0635    0.0045 C.3      1 ZINC000252673365   -0.1300
25     C25    -1.4333   -0.5336    0.0129 C.3      1 ZINC000252673365   -0.1100
26     H26     0.8606    1.8301    0.0037 H        1 ZINC000252673365    0.3800
27     H27     1.7647   -0.1336    1.2338 H        1 ZINC000252673365    0.0700
28     H28     0.2319   -0.1594    2.1383 H        1 ZINC000252673365    0.0800
29     H29     1.2730   -2.3923    0.3363 H        1 ZINC000252673365    0.0700
30     H30     1.2900   -2.4018    2.1162 H        1 ZINC000252673365    0.0700
31     H31     0.1117   -4.5078    0.8711 H        1 ZINC000252673365    0.4100
32     H32     0.1810   -7.0217    0.8561 H        1 ZINC000252673365    0.1500
33     H33    -0.9109   -9.3298    1.3879 H        1 ZINC000252673365    0.1800
34     H34    -3.1775   -8.8742    2.4627 H        1 ZINC000252673365    0.4200
35     H35    -4.1163   -2.1089    2.8604 H        1 ZINC000252673365    0.1400
36     H36    -6.0363   -0.8656    3.7657 H        1 ZINC000252673365    0.1300
37     H37    -7.9622   -2.0780    4.7003 H        1 ZINC000252673365    0.1200
38     H38    -7.9792   -4.5379    4.7345 H        1 ZINC000252673365    0.1300
39     H39    -6.0711   -5.7981    3.8274 H        1 ZINC000252673365    0.1300
40     H40    -0.9024   -2.4150   -0.8923 H        1 ZINC000252673365    0.0600
41     H41    -2.4352   -2.4408    0.0122 H        1 ZINC000252673365    0.0800
42     H42    -1.9435   -0.1821    0.9097 H        1 ZINC000252673365    0.0700
43     H43    -1.9605   -0.1726   -0.8702 H        1 ZINC000252673365    0.0700
@<TRIPOS>BOND
1     1     2     1
2     1     26    1
3     2     3     1
4     2     25    1
5     2     4     1
6     4     5     1
7     4     27    1
8     4     28    1
9     5     6     1
10    5     29    1
11    5     30    1
12    6     7     1
13    6     8     1
14    6     24    1
15    8     9     1
16    8     31    1
17    9     23    ar
18    9     10    ar
19    10    14    ar
20    10    11    1
21    11    12    2
22    11    32    1
23    12    13    1
24    12    33    1
25    13    14    1
26    13    34    1
27    14    15    ar
28    15    16    ar
29    16    17    1
30    16    23    ar
31    17    22    ar
32    17    18    ar
33    18    19    ar
34    18    35    1
35    19    20    ar
36    19    36    1
37    20    21    ar
38    20    37    1
39    21    22    ar
40    21    38    1
41    22    39    1
42    24    25    1
43    24    40    1
44    24    41    1
45    25    42    1
46    25    43    1
@<TRIPOS>SUBSTRUCTURE
1   ZINC000252673365 1     RESIDUE    1   A     ZIN   1
