@<TRIPOS>MOLECULE
ZINC000043196332
73    77    1     0     0
SMALL
USER_CHARGES
@<TRIPOS>ATOM
1      C1      0.4786    1.2287    0.7728 C.3      1 ZINC000043196332   -0.1800
2      C2      0.0021   -0.0041    0.0020 C.3      1 ZINC000043196332    0.1400
3      C3      0.5916   -1.2440    0.6235 C.2      1 ZINC000043196332    0.4500
4      O4     -0.0320   -1.8567    1.4575 O.2      1 ZINC000043196332   -0.4200
5      O5      1.8094   -1.6676    0.2505 O.3      1 ZINC000043196332   -0.3500
6      C6      2.3142   -2.8690    0.8910 C.3      1 ZINC000043196332    0.0800
7      H7      1.9058   -2.9448    1.8987 H        1 ZINC000043196332    0.1300
8      C8      1.9008   -4.0967    0.0763 C.3      1 ZINC000043196332   -0.0200
9      N9      3.0902   -4.8213   -0.3774 N.4      1 ZINC000043196332   -0.2600
10     C10     2.6547   -5.9866   -1.1588 C.3      1 ZINC000043196332   -0.0100
11     C11     3.8809   -6.7616   -1.6452 C.3      1 ZINC000043196332   -0.1000
12     C12     3.4342   -7.9570   -2.4468 C.ar     1 ZINC000043196332   -0.1300
13     C13     3.2020   -9.1646   -1.8150 C.ar     1 ZINC000043196332   -0.0800
14     C14     2.7923  -10.2615   -2.5490 C.ar     1 ZINC000043196332   -0.1500
15     C15     2.6139  -10.1506   -3.9176 C.ar     1 ZINC000043196332    0.1200
16     F16     2.2129  -11.2221   -4.6361 F        1 ZINC000043196332   -0.1300
17     C17     2.8463   -8.9405   -4.5492 C.ar     1 ZINC000043196332   -0.1500
18     C18     3.2514   -7.8437   -3.8124 C.ar     1 ZINC000043196332   -0.0800
19     C19     3.9099   -3.9738   -1.2467 C.3      1 ZINC000043196332   -0.0200
20     C20     4.3899   -2.7419   -0.4761 C.3      1 ZINC000043196332   -0.1400
21     C21     3.8458   -2.8101    0.9600 C.3      1 ZINC000043196332   -0.1000
22     C22     4.3511   -4.1062    1.6075 C.3      1 ZINC000043196332   -0.1300
23     C23     3.8723   -5.2963    0.7664 C.3      1 ZINC000043196332   -0.0200
24     C24    -1.5019   -0.0808    0.0575 C.ar     1 ZINC000043196332   -0.1400
25     C25    -2.1969   -0.7490   -0.9332 C.ar     1 ZINC000043196332   -0.1200
26     C26    -3.5765   -0.8194   -0.8823 C.ar     1 ZINC000043196332   -0.1000
27     C27    -4.2612   -0.2220    0.1595 C.ar     1 ZINC000043196332   -0.0800
28     C28    -3.5661    0.4454    1.1506 C.ar     1 ZINC000043196332   -0.1000
29     C29    -2.1862    0.5121    1.1020 C.ar     1 ZINC000043196332   -0.0700
30     N30     0.4360    0.0957   -1.3979 N.4      1 ZINC000043196332   -0.3700
31     H31     0.2586   -0.7797   -1.8671 H        1 ZINC000043196332    0.4200
32     C32     1.8731    0.3911   -1.4433 C.3      1 ZINC000043196332   -0.0300
33     C33     2.3468    0.4160   -2.8981 C.3      1 ZINC000043196332   -0.1400
34     C34     1.5773    1.4979   -3.6613 C.3      1 ZINC000043196332   -0.1400
35     C35     0.0757    1.2209   -3.5446 C.3      1 ZINC000043196332   -0.1400
36     C36    -0.3126    1.1674   -2.0654 C.3      1 ZINC000043196332   -0.0200
37     H37     1.5665    1.2842    0.7327 H        1 ZINC000043196332    0.1000
38     H38     0.0522    2.1255    0.3233 H        1 ZINC000043196332    0.1100
39     H39     0.1566    1.1547    1.8115 H        1 ZINC000043196332    0.1200
40     H40     1.2916   -4.7541    0.6967 H        1 ZINC000043196332    0.1500
41     H41     1.3196   -3.7778   -0.7889 H        1 ZINC000043196332    0.1300
42     H42     2.0401   -6.6341   -0.5335 H        1 ZINC000043196332    0.1300
43     H43     2.0727   -5.6514   -2.0173 H        1 ZINC000043196332    0.1300
44     H44     4.4956   -6.1140   -2.2704 H        1 ZINC000043196332    0.1000
45     H45     4.4630   -7.0968   -0.7867 H        1 ZINC000043196332    0.1000
46     H46     3.3412   -9.2508   -0.7475 H        1 ZINC000043196332    0.1400
47     H47     2.6116  -11.2049   -2.0554 H        1 ZINC000043196332    0.1500
48     H48     2.7078   -8.8529   -5.6167 H        1 ZINC000043196332    0.1400
49     H49     3.4324   -6.8997   -4.3047 H        1 ZINC000043196332    0.1300
50     H50     4.7728   -4.5411   -1.5956 H        1 ZINC000043196332    0.1400
51     H51     3.3175   -3.6556   -2.1045 H        1 ZINC000043196332    0.1300
52     H52     5.4796   -2.7272   -0.4529 H        1 ZINC000043196332    0.1100
53     H53     4.0208   -1.8394   -0.9634 H        1 ZINC000043196332    0.1000
54     H54     4.1676   -1.9369    1.5276 H        1 ZINC000043196332    0.1300
55     H55     5.4406   -4.0981    1.6391 H        1 ZINC000043196332    0.1200
56     H56     3.9549   -4.1874    2.6197 H        1 ZINC000043196332    0.1100
57     H57     3.2513   -5.9474    1.3816 H        1 ZINC000043196332    0.1300
58     H58     4.7359   -5.8563    0.4076 H        1 ZINC000043196332    0.1400
59     H59    -1.6621   -1.2157   -1.7471 H        1 ZINC000043196332    0.1100
60     H60    -4.1196   -1.3408   -1.6567 H        1 ZINC000043196332    0.1400
61     H61    -5.3391   -0.2764    0.1988 H        1 ZINC000043196332    0.1400
62     H62    -4.1010    0.9125    1.9644 H        1 ZINC000043196332    0.1400
63     H63    -1.6432    1.0336    1.8764 H        1 ZINC000043196332    0.1400
64     H64     2.0586    1.3624   -0.9845 H        1 ZINC000043196332    0.1400
65     H65     2.4191   -0.3780   -0.8969 H        1 ZINC000043196332    0.1500
66     H66     3.4137    0.6373   -2.9297 H        1 ZINC000043196332    0.1200
67     H67     2.1620   -0.5549   -3.3577 H        1 ZINC000043196332    0.0800
68     H68     1.8020    2.4752   -3.2339 H        1 ZINC000043196332    0.0900
69     H69     1.8705    1.4818   -4.7110 H        1 ZINC000043196332    0.1000
70     H70    -0.4808    2.0175   -4.0384 H        1 ZINC000043196332    0.1200
71     H71    -0.1562    0.2667   -4.0177 H        1 ZINC000043196332    0.0900
72     H72    -1.3811    0.9706   -1.9776 H        1 ZINC000043196332    0.1400
73     H73    -0.0802    2.1225   -1.5944 H        1 ZINC000043196332    0.1400
@<TRIPOS>BOND
1     1     2     1
2     1     37    1
3     1     38    1
4     1     39    1
5     2     3     1
6     2     24    1
7     2     30    1
8     3     4     2
9     3     5     1
10    5     6     1
11    6     7     1
12    6     21    1
13    6     8     1
14    8     9     1
15    8     40    1
16    8     41    1
17    9     23    1
18    9     10    1
19    9     19    1
20    10    11    1
21    10    42    1
22    10    43    1
23    11    12    1
24    11    44    1
25    11    45    1
26    12    18    ar
27    12    13    ar
28    13    14    ar
29    13    46    1
30    14    15    ar
31    14    47    1
32    15    16    1
33    15    17    ar
34    17    18    ar
35    17    48    1
36    18    49    1
37    19    20    1
38    19    50    1
39    19    51    1
40    20    21    1
41    20    52    1
42    20    53    1
43    21    22    1
44    21    54    1
45    22    23    1
46    22    55    1
47    22    56    1
48    23    57    1
49    23    58    1
50    24    29    ar
51    24    25    ar
52    25    26    ar
53    25    59    1
54    26    27    ar
55    26    60    1
56    27    28    ar
57    27    61    1
58    28    29    ar
59    28    62    1
60    29    63    1
61    30    31    1
62    30    36    1
63    30    32    1
64    32    33    1
65    32    64    1
66    32    65    1
67    33    34    1
68    33    66    1
69    33    67    1
70    34    35    1
71    34    68    1
72    34    69    1
73    35    36    1
74    35    70    1
75    35    71    1
76    36    72    1
77    36    73    1
@<TRIPOS>SUBSTRUCTURE
1   ZINC000043196332 1     RESIDUE    1   A     ZIN   1
