@<TRIPOS>MOLECULE
ZINC000003798255
35    37    1     0     0
SMALL
USER_CHARGES
@<TRIPOS>ATOM
1      C1      1.2018    1.7867    1.3949 C.3      1 ZINC000003798255   -0.1500
2      C2      1.6261    0.3169    1.3674 C.3      1 ZINC000003798255    0.0300
3      O3      0.4663   -0.5118    1.2669 O.3      1 ZINC000003798255   -0.3400
4      C4      0.7569   -1.9048    1.1360 C.3      1 ZINC000003798255    0.2600
5      C5      1.4251   -2.4045    2.3909 C.cat    1 ZINC000003798255    0.5100
6      N6      0.8625   -3.2835    3.1864 N.pl3    1 ZINC000003798255   -0.6100
7      H7     -0.0097   -3.6859    3.0510 H        1 ZINC000003798255    0.4600
8      C8      1.7635   -3.5634    4.3160 C.3      1 ZINC000003798255    0.0600
9      C9      2.9829   -2.6643    4.0247 C.3      1 ZINC000003798255    0.0500
10     N10     2.6149   -1.9969    2.7656 N.pl3    1 ZINC000003798255   -0.6100
11     C11    -0.5430   -2.6842    0.8953 C.3      1 ZINC000003798255    0.0400
12     O12    -1.1432   -2.1942   -0.3086 O.3      1 ZINC000003798255   -0.2700
13     C13    -0.3212   -2.0387   -1.3822 C.ar     1 ZINC000003798255    0.0600
14     C14    -0.8715   -1.9236   -2.6497 C.ar     1 ZINC000003798255   -0.1100
15     C15    -0.0497   -1.7618   -3.7495 C.ar     1 ZINC000003798255   -0.0900
16     C16     1.3222   -1.7146   -3.5889 C.ar     1 ZINC000003798255   -0.1100
17     C17     1.8774   -1.8301   -2.3281 C.ar     1 ZINC000003798255   -0.1000
18     C18     1.0588   -1.9937   -1.2209 C.ar     1 ZINC000003798255    0.0300
19     O19     1.6201   -2.1145    0.0131 O.3      1 ZINC000003798255   -0.3100
20     H20     0.5545    1.9619    2.2542 H        1 ZINC000003798255    0.0700
21     H21     2.0865    2.4188    1.4716 H        1 ZINC000003798255    0.0900
22     H22     0.6623    2.0263    0.4787 H        1 ZINC000003798255    0.0800
23     H23     2.2735    0.1417    0.5081 H        1 ZINC000003798255    0.0800
24     H24     2.1656    0.0772    2.2837 H        1 ZINC000003798255    0.0500
25     H25     1.2957   -3.2834    5.2599 H        1 ZINC000003798255    0.1400
26     H26     2.0536   -4.6140    4.3258 H        1 ZINC000003798255    0.1400
27     H27     3.1235   -1.9358    4.8232 H        1 ZINC000003798255    0.1400
28     H28     3.8814   -3.2664    3.8891 H        1 ZINC000003798255    0.1400
29     H29     3.1633   -1.3533    2.2902 H        1 ZINC000003798255    0.4600
30     H30    -0.3207   -3.7461    0.7895 H        1 ZINC000003798255    0.1100
31     H31    -1.2232   -2.5323    1.7334 H        1 ZINC000003798255    0.1400
32     H32    -1.9432   -1.9608   -2.7780 H        1 ZINC000003798255    0.1500
33     H33    -0.4804   -1.6726   -4.7358 H        1 ZINC000003798255    0.1400
34     H34     1.9617   -1.5875   -4.4499 H        1 ZINC000003798255    0.1400
35     H35     2.9497   -1.7928   -2.2054 H        1 ZINC000003798255    0.1400
@<TRIPOS>BOND
1     1     2     1
2     1     20    1
3     1     21    1
4     1     22    1
5     2     3     1
6     2     23    1
7     2     24    1
8     3     4     1
9     4     19    1
10    4     5     1
11    4     11    1
12    5     10    ar
13    5     6     ar
14    6     7     1
15    6     8     1
16    8     9     1
17    8     25    1
18    8     26    1
19    9     10    1
20    9     27    1
21    9     28    1
22    10    29    1
23    11    12    1
24    11    30    1
25    11    31    1
26    12    13    1
27    13    18    ar
28    13    14    ar
29    14    15    ar
30    14    32    1
31    15    16    ar
32    15    33    1
33    16    17    ar
34    16    34    1
35    17    18    ar
36    17    35    1
37    18    19    1
@<TRIPOS>SUBSTRUCTURE
1   ZINC000003798255 1     RESIDUE    1   A     ZIN   1
