@<TRIPOS>MOLECULE
ZINC000006281719
  31   32    0    0    0
SMALL
USER_CHARGES
NO_NAME
@<TRIPOS>ATOM
    1 C1        0.0459     1.3355    -0.3573 C.3    1 <0>      -0.1000
    2 C2        0.0405    -0.1656    -0.2241 C.ar   1 <0>      -0.1300
    3 C3        0.0398    -0.9583    -1.3609 C.ar   1 <0>      -0.1000
    4 C4        0.0349    -2.3344    -1.2540 C.ar   1 <0>      -0.1500
    5 C5        0.0310    -2.9352    -0.0022 C.ar   1 <0>       0.1700
    6 N6        0.0265    -4.3215     0.1080 N.am   1 <0>      -0.6300
    7 C7        0.5232    -5.0785    -0.8904 C.2    1 <0>       0.5400
    8 O8        1.0668    -4.5503    -1.8409 O.2    1 <0>      -0.5100
    9 C9        0.4071    -6.5493    -0.8298 C.ar   1 <0>      -0.1200
   10 C10      -0.2219    -7.1588     0.2579 C.ar   1 <0>      -0.0500
   11 C11      -0.3272    -8.5326     0.3089 C.ar   1 <0>      -0.1100
   12 C12       0.1892    -9.3090    -0.7157 C.ar   1 <0>       0.0000
   13 Cl13      0.0515   -11.0380    -0.6433 Cl     1 <0>      -0.0600
   14 C14       0.8142    -8.7120    -1.7975 C.ar   1 <0>      -0.1200
   15 C15       0.9212    -7.3373    -1.8637 C.ar   1 <0>       0.0200
   16 Cl16      1.7049    -6.5897    -3.2204 Cl     1 <0>      -0.0200
   17 C17       0.0321    -2.1350     1.1526 C.ar   1 <0>      -0.1700
   18 C18       0.0285    -2.7582     2.4854 C.2    1 <0>       0.5300
   19 O19      -0.0675    -2.0613     3.4863 O.co2  1 <0>      -0.6800
   20 O20       0.1216    -3.9734     2.5927 O.co2  1 <0>      -0.6900
   21 C21       0.0419    -0.7423     1.0269 C.ar   1 <0>      -0.0600
   22 H22       1.0748     1.6935    -0.3924 H      1 <0>       0.0600
   23 H23      -0.4696     1.6208    -1.2744 H      1 <0>       0.0600
   24 H24      -0.4637     1.7780     0.4986 H      1 <0>       0.0600
   25 H25       0.0429    -0.4962    -2.3370 H      1 <0>       0.1200
   26 H26       0.0337    -2.9446    -2.1450 H      1 <0>       0.1400
   27 H27      -0.3341    -4.7437     0.9033 H      1 <0>       0.4300
   28 H28      -0.6247    -6.5553     1.0578 H      1 <0>       0.1600
   29 H29      -0.8131    -9.0046     1.1500 H      1 <0>       0.1500
   30 H30       1.2150    -9.3228    -2.5929 H      1 <0>       0.1500
   31 H31       0.0428    -0.1197     1.9094 H      1 <0>       0.1300
@<TRIPOS>BOND
   1    1    2 1
   2    1   22 1
   3    1   23 1
   4    1   24 1
   5    2   21 ar
   6    2    3 ar
   7    3    4 ar
   8    3   25 1
   9    4    5 ar
  10    4   26 1
  11    5    6 1
  12    5   17 ar
  13    6    7 am
  14    6   27 1
  15    7    8 2
  16    7    9 1
  17    9   15 ar
  18    9   10 ar
  19   10   11 ar
  20   10   28 1
  21   11   12 ar
  22   11   29 1
  23   12   13 1
  24   12   14 ar
  25   14   15 ar
  26   14   30 1
  27   15   16 1
  28   17   18 1
  29   17   21 ar
  30   18   19 ar
  31   18   20 ar
  32   21   31 1
