@<TRIPOS>MOLECULE
ZINC000038256220
62    64    1     0     0
SMALL
USER_CHARGES
@<TRIPOS>ATOM
1      C1      0.1264    0.9642    0.2677 C.3      1 ZINC000038256220    0.0200
2      O2     -0.1717   -0.4306    0.1794 O.3      1 ZINC000038256220   -0.3100
3      C3      0.4033   -1.1219   -0.8426 C.ar     1 ZINC000038256220   -0.0800
4      C4     -0.2342   -1.2353   -2.0789 C.ar     1 ZINC000038256220    0.4300
5      N5     -1.4730   -0.6423   -2.2912 N.pl3    1 ZINC000038256220   -0.6300
6      C6     -2.1640   -0.8749   -3.4838 C.ar     1 ZINC000038256220    0.1700
7      C7     -1.8350   -1.9612   -4.2910 C.ar     1 ZINC000038256220   -0.1100
8      C8     -2.5485   -2.1498   -5.4634 C.ar     1 ZINC000038256220   -0.0700
9      C9     -3.5553   -1.2613   -5.7915 C.ar     1 ZINC000038256220   -0.4600
10     S10    -4.4681   -1.4941   -7.2806 S.o2     1 ZINC000038256220    2.5100
11     C11    -5.8627   -2.5484   -6.7965 C.3      1 ZINC000038256220   -0.6500
12     O12    -4.9223   -0.1913   -7.6206 O.2      1 ZINC000038256220   -0.9200
13     O13    -3.5775   -2.2044   -8.1301 O.2      1 ZINC000038256220   -0.9300
14     N14    -3.8426   -0.2419   -5.0055 N.ar     1 ZINC000038256220   -0.3700
15     C15    -3.1929   -0.0290   -3.8789 C.ar     1 ZINC000038256220    0.0800
16     C16    -3.5610    1.1512   -3.0170 C.3      1 ZINC000038256220   -0.1100
17     N17     0.3630   -1.9198   -3.0516 N.ar     1 ZINC000038256220   -0.5700
18     C18     1.5374   -2.4843   -2.8582 C.ar     1 ZINC000038256220    0.3700
19     N19     2.1711   -2.4000   -1.7058 N.ar     1 ZINC000038256220   -0.5900
20     C20     1.6461   -1.7301   -0.6844 C.ar     1 ZINC000038256220    0.3900
21     O21     2.3066   -1.6488    0.4977 O.3      1 ZINC000038256220   -0.2800
22     C22     3.5710   -2.3096    0.5811 C.3      1 ZINC000038256220    0.0900
23     C23     4.6801   -1.3433    0.1588 C.3      1 ZINC000038256220   -0.1500
24     C24     6.0300   -2.0652    0.2163 C.3      1 ZINC000038256220    0.1300
25     N25     6.2049   -2.6347    1.5593 N.am     1 ZINC000038256220   -0.6000
26     C26     7.3094   -2.3625    2.2822 C.2      1 ZINC000038256220    0.6500
27     O27     8.1723   -1.6399    1.8243 O.2      1 ZINC000038256220   -0.5700
28     O28     7.4566   -2.8912    3.5116 O.3      1 ZINC000038256220   -0.3600
29     C29     8.6713   -2.5550    4.2326 C.3      1 ZINC000038256220    0.1000
30     C30     8.4399   -1.2882    5.0587 C.3      1 ZINC000038256220   -0.1700
31     C31     9.0477   -3.7093    5.1636 C.3      1 ZINC000038256220   -0.1500
32     C32     5.1527   -3.5062    2.0996 C.3      1 ZINC000038256220    0.1200
33     C33     3.8126   -2.7682    2.0211 C.3      1 ZINC000038256220   -0.1300
34     H34     1.2010    1.0990    0.3910 H        1 ZINC000038256220    0.0500
35     H35    -0.2002    1.4640   -0.6442 H        1 ZINC000038256220    0.0400
36     H36    -0.3942    1.3935    1.1237 H        1 ZINC000038256220    0.1000
37     H37    -1.8582   -0.0671   -1.6117 H        1 ZINC000038256220    0.4300
38     H38    -1.0431   -2.6397   -4.0099 H        1 ZINC000038256220    0.1800
39     H39    -2.3205   -2.9814   -6.1137 H        1 ZINC000038256220    0.1600
40     H40    -6.4527   -2.0422   -6.0324 H        1 ZINC000038256220    0.1300
41     H41    -6.4882   -2.7459   -7.6670 H        1 ZINC000038256220    0.1400
42     H42    -5.4851   -3.4905   -6.3990 H        1 ZINC000038256220    0.1300
43     H43    -4.3323    0.8553   -2.3059 H        1 ZINC000038256220    0.0800
44     H44    -2.6796    1.4943   -2.4752 H        1 ZINC000038256220    0.0700
45     H45    -3.9372    1.9575   -3.6466 H        1 ZINC000038256220    0.0900
46     H46     1.9946   -3.0331   -3.6683 H        1 ZINC000038256220    0.2100
47     H47     3.5726   -3.1755   -0.0809 H        1 ZINC000038256220    0.1000
48     H48     4.4947   -0.9989   -0.8586 H        1 ZINC000038256220    0.0900
49     H49     4.6953   -0.4889    0.8355 H        1 ZINC000038256220    0.0800
50     H50     6.0489   -2.8643   -0.5248 H        1 ZINC000038256220    0.0800
51     H51     6.8325   -1.3562    0.0127 H        1 ZINC000038256220    0.1000
52     H52     9.4797   -2.3828    3.5221 H        1 ZINC000038256220    0.0900
53     H53     7.6314   -1.4603    5.7692 H        1 ZINC000038256220    0.0700
54     H54     9.3517   -1.0358    5.6000 H        1 ZINC000038256220    0.0800
55     H55     8.1717   -0.4658    4.3954 H        1 ZINC000038256220    0.0600
56     H56     9.2126   -4.6118    4.5751 H        1 ZINC000038256220    0.0700
57     H57     9.9595   -3.4569    5.7049 H        1 ZINC000038256220    0.0800
58     H58     8.2393   -3.8815    5.8742 H        1 ZINC000038256220    0.0700
59     H59     5.1000   -4.4228    1.5122 H        1 ZINC000038256220    0.0800
60     H60     5.3763   -3.7480    3.1387 H        1 ZINC000038256220    0.1000
61     H61     3.8360   -1.9003    2.6802 H        1 ZINC000038256220    0.0800
62     H62     3.0097   -3.4380    2.3291 H        1 ZINC000038256220    0.0900
@<TRIPOS>BOND
1     1     2     1
2     1     34    1
3     1     35    1
4     1     36    1
5     2     3     1
6     3     20    ar
7     3     4     ar
8     4     5     1
9     4     17    ar
10    5     6     1
11    5     37    1
12    6     15    ar
13    6     7     ar
14    7     8     ar
15    7     38    1
16    8     9     ar
17    8     39    1
18    9     10    1
19    9     14    ar
20    10    11    1
21    10    12    2
22    10    13    2
23    11    40    1
24    11    41    1
25    11    42    1
26    14    15    ar
27    15    16    1
28    16    43    1
29    16    44    1
30    16    45    1
31    17    18    ar
32    18    19    ar
33    18    46    1
34    19    20    ar
35    20    21    1
36    21    22    1
37    22    33    1
38    22    23    1
39    22    47    1
40    23    24    1
41    23    48    1
42    23    49    1
43    24    25    1
44    24    50    1
45    24    51    1
46    25    26    am
47    25    32    1
48    26    27    2
49    26    28    1
50    28    29    1
51    29    30    1
52    29    31    1
53    29    52    1
54    30    53    1
55    30    54    1
56    30    55    1
57    31    56    1
58    31    57    1
59    31    58    1
60    32    33    1
61    32    59    1
62    32    60    1
63    33    61    1
64    33    62    1
@<TRIPOS>SUBSTRUCTURE
1   ZINC000038256220 1     RESIDUE    1   A     ZIN   1
