@<TRIPOS>MOLECULE
ZINC000001843137
  50   52    0    0    0
SMALL
USER_CHARGES
NO_NAME
@<TRIPOS>ATOM
    1 C1       -0.0187     1.5258     0.0104 C.3    1 <0>      -0.2000
    2 C2        0.0021    -0.0041     0.0020 C.3    1 <0>      -0.0100
    3 H3       -1.0205    -0.3814     0.0098 H      1 <0>       0.1500
    4 N4        0.7126    -0.4907     1.1921 N.4    1 <0>      -0.5000
    5 H5        0.7982    -1.4950     1.1455 H      1 <0>       0.4300
    6 H6        1.6317    -0.0761     1.2281 H      1 <0>       0.4300
    7 C7       -0.0398    -0.1189     2.3978 C.3    1 <0>      -0.0300
    8 C8        0.7001    -0.6257     3.6373 C.3    1 <0>       0.0900
    9 N9       -0.0502    -0.2549     4.8397 N.pl3  1 <0>      -0.4300
   10 C10       0.1467     0.8385     5.6019 C.2    1 <0>       0.2800
   11 N11      -0.7074     0.8450     6.5934 N.2    1 <0>      -0.4800
   12 C12      -1.4916    -0.2337     6.5223 C.2    1 <0>       0.3400
   13 C13      -1.0972    -0.9563     5.4032 C.2    1 <0>      -0.1700
   14 C14      -1.7684    -2.1575     5.0886 C.2    1 <0>       0.6000
   15 O15      -1.4409    -2.8090     4.1131 O.2    1 <0>      -0.5300
   16 N16      -2.7769    -2.5758     5.8815 N.am   1 <0>      -0.5500
   17 C17      -3.4775    -3.8219     5.5609 C.3    1 <0>       0.0800
   18 C18      -3.1482    -1.8666     6.9613 C.2    1 <0>       0.7000
   19 O19      -4.0612    -2.2746     7.6531 O.2    1 <0>      -0.5200
   20 N20      -2.5371    -0.7139     7.2941 N.am   1 <0>      -0.5100
   21 C21      -2.9721     0.0286     8.4797 C.3    1 <0>       0.0800
   22 C22       0.7182    -0.4975    -1.2568 C.3    1 <0>       0.1400
   23 H23       0.8116    -1.5829    -1.2198 H      1 <0>       0.1300
   24 O24       2.0188     0.0904    -1.3262 O.3    1 <0>      -0.5500
   25 C25      -0.0771    -0.1029    -2.4745 C.ar   1 <0>      -0.1400
   26 C26       0.0932     1.1491    -3.0353 C.ar   1 <0>      -0.1100
   27 C27      -0.6364     1.5111    -4.1523 C.ar   1 <0>      -0.1100
   28 C28      -1.5358     0.6210    -4.7087 C.ar   1 <0>      -0.1000
   29 C29      -1.7054    -0.6313    -4.1484 C.ar   1 <0>      -0.1100
   30 C30      -0.9728    -0.9949    -3.0340 C.ar   1 <0>      -0.1000
   31 H31       1.0039     1.9031     0.0027 H      1 <0>       0.0900
   32 H32      -0.5459     1.8868    -0.8726 H      1 <0>       0.1200
   33 H33      -0.5289     1.8773     0.9072 H      1 <0>       0.0900
   34 H34      -0.1324     0.9660     2.4481 H      1 <0>       0.1400
   35 H35      -1.0328    -0.5668     2.3589 H      1 <0>       0.1400
   36 H36       0.7927    -1.7106     3.5869 H      1 <0>       0.1300
   37 H37       1.6931    -0.1778     3.6761 H      1 <0>       0.1300
   38 H38       0.8964     1.5948     5.4222 H      1 <0>       0.2400
   39 H39      -2.9810    -4.6558     6.0570 H      1 <0>       0.0800
   40 H40      -4.5098    -3.7571     5.9047 H      1 <0>       0.1000
   41 H41      -3.4629    -3.9798     4.4825 H      1 <0>       0.1000
   42 H42      -3.7941    -0.5025     8.9597 H      1 <0>       0.1100
   43 H43      -2.1400     0.1177     9.1782 H      1 <0>       0.0800
   44 H44      -3.3059     1.0230     8.1834 H      1 <0>       0.0800
   45 H45       2.0123     1.0567    -1.3619 H      1 <0>       0.3900
   46 H46       0.7959     1.8445    -2.6006 H      1 <0>       0.1200
   47 H47      -0.5039     2.4895    -4.5901 H      1 <0>       0.1300
   48 H48      -2.1063     0.9040    -5.5810 H      1 <0>       0.1300
   49 H49      -2.4084    -1.3266    -4.5829 H      1 <0>       0.1300
   50 H50      -1.1052    -1.9732    -2.5962 H      1 <0>       0.1300
@<TRIPOS>BOND
   1    1    2 1
   2    1   31 1
   3    1   32 1
   4    1   33 1
   5    2    3 1
   6    2    4 1
   7    2   22 1
   8    4    5 1
   9    4    6 1
  10    4    7 1
  11    7    8 1
  12    7   34 1
  13    7   35 1
  14    8    9 1
  15    8   36 1
  16    8   37 1
  17    9   13 1
  18    9   10 1
  19   10   11 2
  20   10   38 1
  21   11   12 1
  22   12   20 1
  23   12   13 2
  24   13   14 1
  25   14   15 2
  26   14   16 am
  27   16   17 1
  28   16   18 am
  29   17   39 1
  30   17   40 1
  31   17   41 1
  32   18   19 2
  33   18   20 am
  34   20   21 1
  35   21   42 1
  36   21   43 1
  37   21   44 1
  38   22   23 1
  39   22   24 1
  40   22   25 1
  41   24   45 1
  42   25   30 ar
  43   25   26 ar
  44   26   27 ar
  45   26   46 1
  46   27   28 ar
  47   27   47 1
  48   28   29 ar
  49   28   48 1
  50   29   30 ar
  51   29   49 1
  52   30   50 1
