@<TRIPOS>MOLECULE
ZINC000043170519
72    76    1     0     0
SMALL
USER_CHARGES
@<TRIPOS>ATOM
1      C1     -0.1789    1.3252   -0.1935 C.3      1 ZINC000043170519   -0.1700
2      C2     -0.3742   -0.0579   -0.8179 C.3      1 ZINC000043170519    0.1300
3      N3     -1.7574   -0.4952   -0.6135 N.pl3    1 ZINC000043170519   -0.3600
4      C4     -2.6103   -0.8875   -1.5803 C.2      1 ZINC000043170519    0.0800
5      C5     -3.7940   -1.2154   -0.9854 C.2      1 ZINC000043170519   -0.2100
6      C6     -5.0144   -1.6986   -1.6699 C.ar     1 ZINC000043170519    0.1000
7      C7     -6.1222   -0.8485   -1.8693 C.ar     1 ZINC000043170519   -0.1400
8      C8     -6.3904    0.5019   -1.5429 C.2      1 ZINC000043170519   -0.1300
9      C9     -7.6386    0.7916   -1.9863 C.2      1 ZINC000043170519    0.0900
10     C10    -8.3138    2.0998   -1.8497 C.ar     1 ZINC000043170519    0.0000
11     C11    -7.6604    3.1640   -1.2267 C.ar     1 ZINC000043170519   -0.0700
12     C12    -8.2962    4.3823   -1.1024 C.ar     1 ZINC000043170519   -0.1000
13     C13    -9.5785    4.5500   -1.5938 C.ar     1 ZINC000043170519   -0.1000
14     C14   -10.2321    3.4987   -2.2122 C.ar     1 ZINC000043170519   -0.1500
15     C15   -11.6291    3.6904   -2.7440 C.3      1 ZINC000043170519    0.0400
16     N16   -11.5637    4.1484   -4.1383 N.4      1 ZINC000043170519   -0.3900
17     H17   -10.9947    4.9799   -4.1929 H        1 ZINC000043170519    0.4300
18     C18   -10.9715    3.0943   -4.9726 C.3      1 ZINC000043170519   -0.0500
19     C19   -12.9187    4.4498   -4.6188 C.3      1 ZINC000043170519   -0.0500
20     C20    -9.6055    2.2775   -2.3484 C.ar     1 ZINC000043170519   -0.1000
21     N21    -8.1781   -0.3266   -2.5850 N.pl3    1 ZINC000043170519   -0.5800
22     C22    -7.2615   -1.3508   -2.5250 C.ar     1 ZINC000043170519    0.3000
23     N23    -7.2845   -2.6086   -2.9467 N.ar     1 ZINC000043170519   -0.5100
24     C24    -6.2629   -3.4222   -2.7725 C.ar     1 ZINC000043170519    0.1600
25     C25    -5.1037   -3.0078   -2.1436 C.ar     1 ZINC000043170519   -0.1900
26     C26    -3.6400   -1.0080    0.4099 C.2      1 ZINC000043170519    0.1400
27     C27    -4.6748   -1.2369    1.4467 C.ar     1 ZINC000043170519   -0.0300
28     C28    -4.7564   -0.3895    2.5509 C.ar     1 ZINC000043170519   -0.0700
29     C29    -5.7199   -0.6042    3.5134 C.ar     1 ZINC000043170519   -0.1500
30     C30    -6.6090   -1.6643    3.3840 C.ar     1 ZINC000043170519    0.1700
31     N31    -7.5852   -1.8803    4.3620 N.am     1 ZINC000043170519   -0.6900
32     C32    -7.9607   -3.1366    4.6736 C.2      1 ZINC000043170519    0.7000
33     O33    -7.4737   -4.0809    4.0825 O.2      1 ZINC000043170519   -0.5700
34     N34    -8.8759   -3.3462    5.6405 N.am     1 ZINC000043170519   -0.6300
35     C35    -9.2331   -4.7134    6.0271 C.3      1 ZINC000043170519    0.1000
36     C36    -9.5137   -2.2068    6.3049 C.3      1 ZINC000043170519    0.0800
37     C37    -6.5300   -2.5101    2.2841 C.ar     1 ZINC000043170519   -0.1200
38     C38    -5.5717   -2.2965    1.3162 C.ar     1 ZINC000043170519   -0.0700
39     N39    -2.4141   -0.5817    0.6197 N.2      1 ZINC000043170519   -0.2800
40     H40     0.8502    1.6505   -0.3456 H        1 ZINC000043170519    0.0800
41     H41    -0.8580    2.0357   -0.6648 H        1 ZINC000043170519    0.0600
42     H42    -0.3899    1.2746    0.8747 H        1 ZINC000043170519    0.0700
43     H43    -0.1632   -0.0074   -1.8861 H        1 ZINC000043170519    0.1000
44     H44     0.3049   -0.7684   -0.3467 H        1 ZINC000043170519    0.0900
45     H45    -2.3955   -0.9338   -2.6378 H        1 ZINC000043170519    0.1800
46     H46    -5.7218    1.1794   -1.0325 H        1 ZINC000043170519    0.1500
47     H47    -6.6595    3.0342   -0.8424 H        1 ZINC000043170519    0.1400
48     H48    -7.7919    5.2066   -0.6202 H        1 ZINC000043170519    0.1400
49     H49   -10.0717    5.5056   -1.4940 H        1 ZINC000043170519    0.1300
50     H50   -12.1687    2.7445   -2.6972 H        1 ZINC000043170519    0.1400
51     H51   -12.1484    4.4352   -2.1410 H        1 ZINC000043170519    0.1400
52     H52   -10.9229    3.4340   -6.0072 H        1 ZINC000043170519    0.1300
53     H53    -9.9660    2.8706   -4.6161 H        1 ZINC000043170519    0.1200
54     H54   -11.5861    2.1960   -4.9137 H        1 ZINC000043170519    0.1200
55     H55   -13.3581    5.2319   -3.9997 H        1 ZINC000043170519    0.1200
56     H56   -12.8702    4.7896   -5.6533 H        1 ZINC000043170519    0.1300
57     H57   -13.5333    3.5515   -4.5598 H        1 ZINC000043170519    0.1200
58     H58   -10.1165    1.4578   -2.8316 H        1 ZINC000043170519    0.1300
59     H59    -9.0605   -0.3823   -2.9840 H        1 ZINC000043170519    0.4200
60     H60    -6.3313   -4.4376   -3.1340 H        1 ZINC000043170519    0.1700
61     H61    -4.2791   -3.6928   -2.0126 H        1 ZINC000043170519    0.1400
62     H62    -4.0652    0.4341    2.6524 H        1 ZINC000043170519    0.1300
63     H63    -5.7835    0.0520    4.3689 H        1 ZINC000043170519    0.1300
64     H64    -7.9921   -1.1258    4.8161 H        1 ZINC000043170519    0.4100
65     H65    -8.5759   -5.0474    6.8300 H        1 ZINC000043170519    0.0600
66     H66   -10.2671   -4.7353    6.3711 H        1 ZINC000043170519    0.0700
67     H67    -9.1219   -5.3747    5.1678 H        1 ZINC000043170519    0.0800
68     H68    -9.1689   -1.2797    5.8470 H        1 ZINC000043170519    0.0700
69     H69   -10.5958   -2.2837    6.1992 H        1 ZINC000043170519    0.0700
70     H70    -9.2508   -2.2094    7.3627 H        1 ZINC000043170519    0.0700
71     H71    -7.2223   -3.3331    2.1855 H        1 ZINC000043170519    0.1400
72     H72    -5.5109   -2.9539    0.4615 H        1 ZINC000043170519    0.1300
@<TRIPOS>BOND
1     1     2     1
2     1     40    1
3     1     41    1
4     1     42    1
5     2     3     1
6     2     43    1
7     2     44    1
8     3     39    1
9     3     4     1
10    4     5     2
11    4     45    1
12    5     6     1
13    5     26    1
14    6     25    ar
15    6     7     ar
16    7     22    ar
17    7     8     1
18    8     9     2
19    8     46    1
20    9     10    1
21    9     21    1
22    10    20    ar
23    10    11    ar
24    11    12    ar
25    11    47    1
26    12    13    ar
27    12    48    1
28    13    14    ar
29    13    49    1
30    14    15    1
31    14    20    ar
32    15    16    1
33    15    50    1
34    15    51    1
35    16    17    1
36    16    18    1
37    16    19    1
38    18    52    1
39    18    53    1
40    18    54    1
41    19    55    1
42    19    56    1
43    19    57    1
44    20    58    1
45    21    22    1
46    21    59    1
47    22    23    ar
48    23    24    ar
49    24    25    ar
50    24    60    1
51    25    61    1
52    26    27    1
53    26    39    2
54    27    38    ar
55    27    28    ar
56    28    29    ar
57    28    62    1
58    29    30    ar
59    29    63    1
60    30    31    1
61    30    37    ar
62    31    32    am
63    31    64    1
64    32    33    2
65    32    34    am
66    34    35    1
67    34    36    1
68    35    65    1
69    35    66    1
70    35    67    1
71    36    68    1
72    36    69    1
73    36    70    1
74    37    38    ar
75    37    71    1
76    38    72    1
@<TRIPOS>SUBSTRUCTURE
1   ZINC000043170519 1     RESIDUE    1   A     ZIN   1
