@<TRIPOS>MOLECULE
ZINC000222108067
65    68    1     0     0
SMALL
USER_CHARGES
@<TRIPOS>ATOM
1      C1     -0.0160    1.3238   -0.0295 C.2      1 ZINC000222108067   -0.2000
2      C2      0.0017   -0.0030   -0.0342 C.2      1 ZINC000222108067   -0.0900
3      C3      1.2901   -0.7240   -0.0390 C.ar     1 ZINC000222108067   -0.1000
4      C4      2.4860   -0.0111   -0.0327 C.ar     1 ZINC000222108067   -0.0400
5      C5      3.7002   -0.6924   -0.0367 C.ar     1 ZINC000222108067   -0.1100
6      C6      4.9695    0.0589   -0.0296 C.2      1 ZINC000222108067    0.5800
7      O7      6.0291   -0.5376   -0.0331 O.2      1 ZINC000222108067   -0.4900
8      N8      4.9549    1.4065   -0.0192 N.am     1 ZINC000222108067   -0.6800
9      C9      6.1504    2.1156    0.0847 C.ar     1 ZINC000222108067    0.2500
10     C10     7.3018    1.6288   -0.5262 C.ar     1 ZINC000222108067   -0.1300
11     C11     8.4842    2.3270   -0.4253 C.ar     1 ZINC000222108067   -0.0300
12     C12     8.5271    3.5254    0.2912 C.ar     1 ZINC000222108067   -0.2000
13     C13     9.7941    4.2772    0.4009 C.cat    1 ZINC000222108067    0.6100
14     N14     9.7732    5.6042    0.5196 N.pl3    1 ZINC000222108067   -0.7700
15     N15    10.9577    3.6283    0.3811 N.pl3    1 ZINC000222108067   -0.7600
16     H16    10.9729    2.6623    0.2946 H        1 ZINC000222108067    0.4500
17     H17    11.7896    4.1219    0.4531 H        1 ZINC000222108067    0.4300
18     C18     7.3695    4.0117    0.9034 C.ar     1 ZINC000222108067   -0.0300
19     C19     6.1887    3.3119    0.7943 C.ar     1 ZINC000222108067   -0.1500
20     C20     3.7134   -2.1021   -0.0472 C.ar     1 ZINC000222108067    0.1100
21     C21     5.0003   -2.8301   -0.0510 C.ar     1 ZINC000222108067   -0.0600
22     C22     5.3717   -3.6106   -1.1514 C.ar     1 ZINC000222108067   -0.0900
23     C23     6.5842   -4.2723   -1.1094 C.ar     1 ZINC000222108067   -0.1200
24     C24     7.3975   -4.1441    0.0210 C.ar     1 ZINC000222108067    0.0600
25     C25     8.6977   -4.8525    0.0682 C.2      1 ZINC000222108067    0.5800
26     O26     9.0503   -5.5386   -0.8707 O.2      1 ZINC000222108067   -0.5500
27     N27     9.4895   -4.7361    1.1526 N.am     1 ZINC000222108067   -0.7100
28     C28    10.7753   -5.4366    1.1994 C.3      1 ZINC000222108067    0.1500
29     C29    11.4706   -5.1384    2.5293 C.3      1 ZINC000222108067   -0.1700
30     C30    11.7120   -6.3132    3.4793 C.3      1 ZINC000222108067   -0.1800
31     C31    12.8859   -5.6857    2.7248 C.3      1 ZINC000222108067   -0.1700
32     N32     7.0236   -3.3995    1.0486 N.ar     1 ZINC000222108067   -0.4200
33     C33     5.8742   -2.7441    1.0508 C.ar     1 ZINC000222108067    0.1400
34     C34     5.4996   -1.9241    2.2221 C.2      1 ZINC000222108067    0.5400
35     O35     6.2507   -1.8532    3.1842 O.co2    1 ZINC000222108067   -0.6600
36     O36     4.4385   -1.3167    2.2289 O.co2    1 ZINC000222108067   -0.6700
37     C37     2.5136   -2.8077   -0.0534 C.ar     1 ZINC000222108067   -0.2100
38     C38     1.3080   -2.1274   -0.0440 C.ar     1 ZINC000222108067    0.1700
39     O39     0.1408   -2.8190   -0.0501 O.3      1 ZINC000222108067   -0.3100
40     C40     0.2317   -4.2450   -0.0664 C.3      1 ZINC000222108067    0.0200
41     H41     0.9120    1.8763   -0.0291 H        1 ZINC000222108067    0.0900
42     H42    -0.9585    1.8513   -0.0305 H        1 ZINC000222108067    0.1000
43     H43    -0.9263   -0.5554   -0.0346 H        1 ZINC000222108067    0.1200
44     H44     2.4718    1.0688   -0.0250 H        1 ZINC000222108067    0.1300
45     H45     4.1125    1.8830   -0.0839 H        1 ZINC000222108067    0.4200
46     H46     7.2681    0.7020   -1.0797 H        1 ZINC000222108067    0.1600
47     H47     9.3777    1.9484   -0.8994 H        1 ZINC000222108067    0.1400
48     H48     8.9261    6.0766    0.5340 H        1 ZINC000222108067    0.4400
49     H49    10.6051    6.0979    0.5916 H        1 ZINC000222108067    0.4300
50     H50     7.3997    4.9377    1.4583 H        1 ZINC000222108067    0.1400
51     H51     5.2934    3.6873    1.2674 H        1 ZINC000222108067    0.1500
52     H52     4.7260   -3.6942   -2.0130 H        1 ZINC000222108067    0.1400
53     H53     6.9006   -4.8832   -1.9419 H        1 ZINC000222108067    0.1400
54     H54     9.2081   -4.1884    1.9022 H        1 ZINC000222108067    0.4200
55     H55    10.6078   -6.5099    1.1097 H        1 ZINC000222108067    0.0700
56     H56    11.4042   -5.0970    0.3764 H        1 ZINC000222108067    0.0700
57     H57    11.2394   -4.1704    2.9739 H        1 ZINC000222108067    0.1100
58     H58    11.6395   -6.1183    4.5493 H        1 ZINC000222108067    0.1000
59     H59    11.3755   -7.2985    3.1568 H        1 ZINC000222108067    0.1000
60     H60    13.3217   -6.2582    1.9061 H        1 ZINC000222108067    0.1000
61     H61    13.5857   -5.0780    3.2985 H        1 ZINC000222108067    0.1000
62     H62     2.5233   -3.8877   -0.0614 H        1 ZINC000222108067    0.1300
63     H63     0.7663   -4.5648   -0.9608 H        1 ZINC000222108067    0.0600
64     H64     0.7689   -4.5850    0.8190 H        1 ZINC000222108067    0.0600
65     H65    -0.7708   -4.6729   -0.0698 H        1 ZINC000222108067    0.1000
@<TRIPOS>BOND
1     1     2     2
2     1     41    1
3     1     42    1
4     2     3     1
5     2     43    1
6     3     38    ar
7     3     4     ar
8     4     5     ar
9     4     44    1
10    5     6     1
11    5     20    ar
12    6     7     2
13    6     8     am
14    8     9     1
15    8     45    1
16    9     19    ar
17    9     10    ar
18    10    11    ar
19    10    46    1
20    11    12    ar
21    11    47    1
22    12    13    1
23    12    18    ar
24    13    14    ar
25    13    15    ar
26    14    48    1
27    14    49    1
28    15    16    1
29    15    17    1
30    18    19    ar
31    18    50    1
32    19    51    1
33    20    21    1
34    20    37    ar
35    21    33    ar
36    21    22    ar
37    22    23    ar
38    22    52    1
39    23    24    ar
40    23    53    1
41    24    25    1
42    24    32    ar
43    25    26    2
44    25    27    am
45    27    28    1
46    27    54    1
47    28    29    1
48    28    55    1
49    28    56    1
50    29    31    1
51    29    30    1
52    29    57    1
53    30    31    1
54    30    58    1
55    30    59    1
56    31    60    1
57    31    61    1
58    32    33    ar
59    33    34    1
60    34    35    ar
61    34    36    ar
62    37    38    ar
63    37    62    1
64    38    39    1
65    39    40    1
66    40    63    1
67    40    64    1
68    40    65    1
@<TRIPOS>SUBSTRUCTURE
1   ZINC000222108067 1     RESIDUE    1   A     ZIN   1
