@<TRIPOS>MOLECULE
ZINC000001533882
  54   55    0    0    0
SMALL
USER_CHARGES
NO_NAME
@<TRIPOS>ATOM
    1 C1       -0.0187     1.5258     0.0104 C.3    1 <0>      -0.1100
    2 C2        0.0021    -0.0041     0.0020 C.3    1 <0>      -0.1400
    3 C3        0.7421    -0.5109     1.2415 C.3    1 <0>      -0.1100
    4 C4       -1.4333    -0.5336     0.0129 C.3    1 <0>      -0.0900
    5 C5       -2.1494    -0.0402     1.2717 C.3    1 <0>      -0.1200
    6 C6       -3.5848    -0.5698     1.2825 C.3    1 <0>      -0.1200
    7 C7       -4.3010    -0.0764     2.5413 C.3    1 <0>      -0.1100
    8 C8       -5.7364    -0.6060     2.5522 C.3    1 <0>      -0.0500
    9 C9       -6.4417    -0.1200     3.7921 C.2    1 <0>      -0.1600
   10 C10      -7.1379     1.0139     3.8862 C.2    1 <0>      -0.1100
   11 C11      -7.3011     1.9634     2.7274 C.3    1 <0>      -0.0600
   12 C12      -8.4771     1.5114     1.8593 C.3    1 <0>      -0.1000
   13 C13      -8.6427     2.4754     0.6828 C.3    1 <0>      -0.0800
   14 C14      -9.8011     2.0302    -0.1722 C.ar   1 <0>      -0.0800
   15 C15      -9.5908     1.1491    -1.2164 C.ar   1 <0>      -0.1200
   16 C16     -10.6533     0.7407    -2.0007 C.ar   1 <0>      -0.1200
   17 C17     -11.9262     1.2130    -1.7406 C.ar   1 <0>      -0.1300
   18 C18     -12.1366     2.0934    -0.6958 C.ar   1 <0>      -0.1200
   19 C19     -11.0747     2.4985     0.0912 C.ar   1 <0>      -0.1200
   20 C20      -7.6996     1.2521     5.1287 C.2    1 <0>      -0.1200
   21 C21      -7.4595     0.3116     6.0437 C.2    1 <0>      -0.2200
   22 S22      -6.4792    -0.9648     5.3343 S.3    1 <0>       0.0900
   23 C23       0.7074    -0.4901    -1.2379 C.2    1 <0>       0.5000
   24 O24       1.3143    -1.5474    -1.2191 O.co2  1 <0>      -0.7000
   25 O25       0.6713     0.1740    -2.2597 O.co2  1 <0>      -0.7000
   26 H26       1.0039     1.9031     0.0027 H      1 <0>       0.0400
   27 H27      -0.5459     1.8868    -0.8726 H      1 <0>       0.0500
   28 H28      -0.5289     1.8773     0.9072 H      1 <0>       0.0400
   29 H29       0.2319    -0.1594     2.1383 H      1 <0>       0.0400
   30 H30       0.7568    -1.6008     1.2356 H      1 <0>       0.0500
   31 H31       1.7647    -0.1336     1.2338 H      1 <0>       0.0400
   32 H32      -1.9605    -0.1726    -0.8702 H      1 <0>       0.0500
   33 H33      -1.4185    -1.6235     0.0069 H      1 <0>       0.0500
   34 H34      -1.6223    -0.4013     2.1547 H      1 <0>       0.0600
   35 H35      -2.1642     1.0497     1.2777 H      1 <0>       0.0600
   36 H36      -4.1120    -0.2087     0.3995 H      1 <0>       0.0600
   37 H37      -3.5700    -1.6597     1.2765 H      1 <0>       0.0600
   38 H38      -3.7738    -0.4375     3.4244 H      1 <0>       0.0600
   39 H39      -4.3157     1.0135     2.5473 H      1 <0>       0.0600
   40 H40      -6.2635    -0.2449     1.6691 H      1 <0>       0.0800
   41 H41      -5.7216    -1.6959     2.5462 H      1 <0>       0.0700
   42 H42      -7.4931     2.9678     3.1049 H      1 <0>       0.0700
   43 H43      -6.3893     1.9679     2.1302 H      1 <0>       0.0800
   44 H44      -8.2851     0.5071     1.4818 H      1 <0>       0.0700
   45 H45      -9.3889     1.5069     2.4565 H      1 <0>       0.0600
   46 H46      -8.8347     3.4798     1.0603 H      1 <0>       0.0700
   47 H47      -7.7309     2.4799     0.0856 H      1 <0>       0.0800
   48 H48      -8.5964     0.7801    -1.4197 H      1 <0>       0.1200
   49 H49     -10.4890     0.0529    -2.8170 H      1 <0>       0.1200
   50 H50     -12.7562     0.8945    -2.3538 H      1 <0>       0.1200
   51 H51     -13.1309     2.4627    -0.4927 H      1 <0>       0.1200
   52 H52     -11.2391     3.1863     0.9075 H      1 <0>       0.1200
   53 H53      -8.2874     2.1328     5.3413 H      1 <0>       0.1400
   54 H54      -7.8157     0.3295     7.0631 H      1 <0>       0.1600
@<TRIPOS>BOND
   1    1    2 1
   2    1   26 1
   3    1   27 1
   4    1   28 1
   5    2    3 1
   6    2    4 1
   7    2   23 1
   8    3   29 1
   9    3   30 1
  10    3   31 1
  11    4    5 1
  12    4   32 1
  13    4   33 1
  14    5    6 1
  15    5   34 1
  16    5   35 1
  17    6    7 1
  18    6   36 1
  19    6   37 1
  20    7    8 1
  21    7   38 1
  22    7   39 1
  23    8    9 1
  24    8   40 1
  25    8   41 1
  26    9   22 1
  27    9   10 2
  28   10   11 1
  29   10   20 1
  30   11   12 1
  31   11   42 1
  32   11   43 1
  33   12   13 1
  34   12   44 1
  35   12   45 1
  36   13   14 1
  37   13   46 1
  38   13   47 1
  39   14   19 ar
  40   14   15 ar
  41   15   16 ar
  42   15   48 1
  43   16   17 ar
  44   16   49 1
  45   17   18 ar
  46   17   50 1
  47   18   19 ar
  48   18   51 1
  49   19   52 1
  50   20   21 2
  51   20   53 1
  52   21   22 1
  53   21   54 1
  54   23   24 ar
  55   23   25 ar
