@<TRIPOS>MOLECULE
ZINC000000004153
40    41    1     0     0
SMALL
USER_CHARGES
@<TRIPOS>ATOM
1      C1      0.4487    1.5567    0.0942 C.3      1 ZINC000000004153   -0.1700
2      C2      0.1782    0.0539   -0.0016 C.3      1 ZINC000000004153    0.2300
3      C3      0.6601   -0.6337    1.2775 C.3      1 ZINC000000004153   -0.0800
4      C4     -0.0055    0.0019    2.4708 C.ar     1 ZINC000000004153   -0.0800
5      C5      0.5773    1.0932    3.0875 C.ar     1 ZINC000000004153   -0.1100
6      C6     -0.0333    1.6762    4.1821 C.ar     1 ZINC000000004153   -0.1200
7      C7     -1.2268    1.1681    4.6598 C.ar     1 ZINC000000004153   -0.1200
8      C8     -1.8100    0.0773    4.0426 C.ar     1 ZINC000000004153   -0.1200
9      C9     -1.2017   -0.5030    2.9453 C.ar     1 ZINC000000004153   -0.1000
10     N10     0.8954   -0.4990   -1.1532 N.am     1 ZINC000000004153   -0.7300
11     C11     0.5858   -0.0901   -2.3995 C.2      1 ZINC000000004153    0.5100
12     O12    -0.2209    0.8007   -2.5627 O.2      1 ZINC000000004153   -0.5100
13     C13     1.2419   -0.7399   -3.5905 C.3      1 ZINC000000004153    0.0400
14     N14     0.7396   -0.1212   -4.8245 N.3      1 ZINC000000004153   -0.8300
15     C15    -1.3008   -0.1805   -0.1711 C.ar     1 ZINC000000004153   -0.0700
16     C16    -2.2077    0.7317    0.3351 C.ar     1 ZINC000000004153   -0.0900
17     C17    -3.5643    0.5168    0.1796 C.ar     1 ZINC000000004153   -0.1200
18     C18    -4.0141   -0.6102   -0.4826 C.ar     1 ZINC000000004153   -0.1200
19     C19    -3.1072   -1.5220   -0.9896 C.ar     1 ZINC000000004153   -0.1200
20     C20    -1.7505   -1.3049   -0.8379 C.ar     1 ZINC000000004153   -0.1100
21     H21     1.5184    1.7262    0.2169 H        1 ZINC000000004153    0.0600
22     H22     0.1053    2.0465   -0.8170 H        1 ZINC000000004153    0.0800
23     H23    -0.0849    1.9680    0.9511 H        1 ZINC000000004153    0.0700
24     H24     0.4039   -1.6924    1.2395 H        1 ZINC000000004153    0.0800
25     H25     1.7412   -0.5244    1.3634 H        1 ZINC000000004153    0.0800
26     H26     1.5097    1.4902    2.7142 H        1 ZINC000000004153    0.1200
27     H27     0.4223    2.5284    4.6643 H        1 ZINC000000004153    0.1200
28     H28    -1.7035    1.6232    5.5155 H        1 ZINC000000004153    0.1200
29     H29    -2.7424   -0.3198    4.4160 H        1 ZINC000000004153    0.1200
30     H30    -1.6573   -1.3552    2.4631 H        1 ZINC000000004153    0.1200
31     H31     1.5931   -1.1593   -1.0186 H        1 ZINC000000004153    0.4000
32     H32     2.3217   -0.6042   -3.5294 H        1 ZINC000000004153    0.1000
33     H33     1.0094   -1.8048   -3.5973 H        1 ZINC000000004153    0.0600
34     H34     1.1648   -0.5399   -5.6380 H        1 ZINC000000004153    0.3500
35     H35    -0.2667   -0.1769   -4.8733 H        1 ZINC000000004153    0.3500
36     H36    -1.8563    1.6122    0.8525 H        1 ZINC000000004153    0.1200
37     H37    -4.2728    1.2291    0.5757 H        1 ZINC000000004153    0.1200
38     H38    -5.0740   -0.7785   -0.6035 H        1 ZINC000000004153    0.1200
39     H39    -3.4586   -2.4027   -1.5067 H        1 ZINC000000004153    0.1200
40     H40    -1.0419   -2.0172   -1.2340 H        1 ZINC000000004153    0.1100
@<TRIPOS>BOND
1     1     2     1
2     1     21    1
3     1     22    1
4     1     23    1
5     2     3     1
6     2     10    1
7     2     15    1
8     3     4     1
9     3     24    1
10    3     25    1
11    4     9     ar
12    4     5     ar
13    5     6     ar
14    5     26    1
15    6     7     ar
16    6     27    1
17    7     8     ar
18    7     28    1
19    8     9     ar
20    8     29    1
21    9     30    1
22    10    11    am
23    10    31    1
24    11    12    2
25    11    13    1
26    13    14    1
27    13    32    1
28    13    33    1
29    14    34    1
30    14    35    1
31    15    20    ar
32    15    16    ar
33    16    17    ar
34    16    36    1
35    17    18    ar
36    17    37    1
37    18    19    ar
38    18    38    1
39    19    20    ar
40    19    39    1
41    20    40    1
@<TRIPOS>SUBSTRUCTURE
1   ZINC000000004153 1     RESIDUE    1   A     ZIN   1
