@<TRIPOS>MOLECULE
ZINC000113648937
87    91    1     0     0
SMALL
USER_CHARGES
@<TRIPOS>ATOM
1      C1     -0.2115    1.2755    0.1559 C.3      1 ZINC000113648937    0.0700
2      N2     -0.1810   -0.1887    0.1179 N.am     1 ZINC000113648937   -0.6100
3      C3     -0.0171   -0.9504    1.3585 C.3      1 ZINC000113648937    0.1100
4      C4     -1.3923   -1.2497    1.9587 C.3      1 ZINC000113648937    0.0400
5      N5     -1.2280   -2.0135    3.2027 N.3      1 ZINC000113648937   -0.5400
6      C6     -0.2598   -3.1036    3.0270 C.3      1 ZINC000113648937    0.0500
7      C7     -0.0052   -3.7836    4.3741 C.3      1 ZINC000113648937   -0.1100
8      C8     -1.3260   -4.3322    4.9211 C.3      1 ZINC000113648937    0.1100
9      O9     -1.1007   -4.9278    6.2260 O.3      1 ZINC000113648937   -0.3600
10     C10    -1.9023   -5.9510    6.5775 C.2      1 ZINC000113648937    0.6500
11     O11    -2.7663   -6.3357    5.8147 O.2      1 ZINC000113648937   -0.5500
12     N12    -1.7461   -6.5485    7.7755 N.am     1 ZINC000113648937   -0.6500
13     C13    -2.5098   -7.6732    8.1003 C.ar     1 ZINC000113648937    0.1700
14     C14    -3.8171   -7.7808    7.6500 C.ar     1 ZINC000113648937   -0.1200
15     C15    -4.5704   -8.8937    7.9717 C.ar     1 ZINC000113648937   -0.1000
16     C16    -4.0272   -9.9054    8.7437 C.ar     1 ZINC000113648937   -0.1300
17     C17    -2.7274   -9.8117    9.1992 C.ar     1 ZINC000113648937   -0.0900
18     C18    -1.9563   -8.6980    8.8764 C.ar     1 ZINC000113648937   -0.0700
19     C19    -0.5595   -8.5925    9.3633 C.ar     1 ZINC000113648937   -0.0500
20     C20     0.4688   -8.2797    8.4760 C.ar     1 ZINC000113648937   -0.1100
21     C21     1.7669   -8.1829    8.9347 C.ar     1 ZINC000113648937   -0.1200
22     C22     2.0482   -8.3955   10.2722 C.ar     1 ZINC000113648937   -0.1200
23     C23     1.0317   -8.7065   11.1573 C.ar     1 ZINC000113648937   -0.1200
24     C24    -0.2709   -8.8000   10.7110 C.ar     1 ZINC000113648937   -0.1000
25     C25    -2.3321   -3.1850    5.0490 C.3      1 ZINC000113648937   -0.1300
26     C26    -2.5193   -2.5223    3.6823 C.3      1 ZINC000113648937    0.0600
27     C27    -0.3038   -0.8350   -1.0584 C.2      1 ZINC000113648937    0.5600
28     O28    -0.3859   -2.0475   -1.0800 O.2      1 ZINC000113648937   -0.5300
29     C29    -0.3387   -0.0691   -2.3226 C.ar     1 ZINC000113648937   -0.1300
30     C30     0.4272    1.0895   -2.4615 C.ar     1 ZINC000113648937   -0.0900
31     C31     0.3905    1.7993   -3.6439 C.ar     1 ZINC000113648937   -0.1200
32     C32    -0.4035    1.3652   -4.6905 C.ar     1 ZINC000113648937   -0.0600
33     C33    -0.4390    2.1459   -5.9790 C.3      1 ZINC000113648937    0.0900
34     N34     0.6036    1.6444   -6.8843 N.3      1 ZINC000113648937   -0.5300
35     C35     1.8778    1.4717   -6.1751 C.3      1 ZINC000113648937    0.0500
36     C36     2.8971    0.8137   -7.1078 C.3      1 ZINC000113648937   -0.1000
37     C37     3.0948    1.6959   -8.3436 C.3      1 ZINC000113648937   -0.1100
38     C38     4.0524    1.0242   -9.2938 C.2      1 ZINC000113648937    0.5200
39     N39     4.3776    1.6219  -10.4573 N.am     1 ZINC000113648937   -0.8600
40     O40     4.5305   -0.0541   -9.0116 O.2      1 ZINC000113648937   -0.5400
41     C41     1.7448    1.8999   -9.0366 C.3      1 ZINC000113648937   -0.1100
42     C42     0.7589    2.5264   -8.0480 C.3      1 ZINC000113648937    0.0600
43     C43    -1.1648    0.2173   -4.5595 C.ar     1 ZINC000113648937   -0.1000
44     C44    -1.1331   -0.5046   -3.3843 C.ar     1 ZINC000113648937   -0.0600
45     H45     0.8078    1.6609    0.1309 H        1 ZINC000113648937    0.0600
46     H46    -0.7627    1.6499   -0.7067 H        1 ZINC000113648937    0.0800
47     H47    -0.7022    1.6050    1.0717 H        1 ZINC000113648937    0.0700
48     H48     0.4976   -1.8871    1.1445 H        1 ZINC000113648937    0.0900
49     H49     0.5698   -0.3672    2.0681 H        1 ZINC000113648937    0.0900
50     H50    -1.9070   -0.3130    2.1727 H        1 ZINC000113648937    0.0800
51     H51    -1.9793   -1.8329    1.2491 H        1 ZINC000113648937    0.0400
52     H52    -0.6581   -3.8328    2.3215 H        1 ZINC000113648937    0.0400
53     H53     0.6762   -2.6994    2.6415 H        1 ZINC000113648937    0.0900
54     H54     0.7015   -4.6026    4.2405 H        1 ZINC000113648937    0.0800
55     H55     0.4060   -3.0581    5.0760 H        1 ZINC000113648937    0.0900
56     H56    -1.7174   -5.0868    4.2389 H        1 ZINC000113648937    0.0900
57     H57    -1.1038   -6.1980    8.4122 H        1 ZINC000113648937    0.4200
58     H58    -4.2469   -6.9940    7.0477 H        1 ZINC000113648937    0.1400
59     H59    -5.5881   -8.9740    7.6193 H        1 ZINC000113648937    0.1300
60     H60    -4.6227  -10.7718    8.9911 H        1 ZINC000113648937    0.1300
61     H61    -2.3075  -10.6035    9.8018 H        1 ZINC000113648937    0.1300
62     H62     0.2503   -8.1139    7.4314 H        1 ZINC000113648937    0.1200
63     H63     2.5645   -7.9409    8.2479 H        1 ZINC000113648937    0.1200
64     H64     3.0655   -8.3186   10.6268 H        1 ZINC000113648937    0.1200
65     H65     1.2572   -8.8719   12.2005 H        1 ZINC000113648937    0.1300
66     H66    -1.0638   -9.0426   11.4030 H        1 ZINC000113648937    0.1300
67     H67    -3.2878   -3.5764    5.3976 H        1 ZINC000113648937    0.0800
68     H68    -1.9574   -2.4501    5.7615 H        1 ZINC000113648937    0.0800
69     H69    -3.2243   -1.6960    3.7729 H        1 ZINC000113648937    0.0800
70     H70    -2.9070   -3.2543    2.9738 H        1 ZINC000113648937    0.0400
71     H71     1.0469    1.4297   -1.6450 H        1 ZINC000113648937    0.1300
72     H72     0.9827    2.6959   -3.7527 H        1 ZINC000113648937    0.1300
73     H73    -1.4155    2.0278   -6.4486 H        1 ZINC000113648937    0.0900
74     H74    -0.2617    3.2008   -5.7697 H        1 ZINC000113648937    0.0500
75     H75     2.2515    2.4451   -5.8575 H        1 ZINC000113648937    0.0300
76     H76     1.7240    0.8390   -5.3009 H        1 ZINC000113648937    0.0900
77     H77     3.8474    0.6999   -6.5861 H        1 ZINC000113648937    0.0700
78     H78     2.5303   -0.1658   -7.4148 H        1 ZINC000113648937    0.0800
79     H79     3.4995    2.6616   -8.0407 H        1 ZINC000113648937    0.0900
80     H80     3.9952    2.4843  -10.6830 H        1 ZINC000113648937    0.4000
81     H81     4.9939    1.1896  -11.0689 H        1 ZINC000113648937    0.4000
82     H82     1.8718    2.5621   -9.8930 H        1 ZINC000113648937    0.0700
83     H83     1.3599    0.9375   -9.3740 H        1 ZINC000113648937    0.0800
84     H84    -0.2076    2.6598   -8.5342 H        1 ZINC000113648937    0.0800
85     H85     1.1378    3.4949   -7.7217 H        1 ZINC000113648937    0.0400
86     H86    -1.7823   -0.1163   -5.3803 H        1 ZINC000113648937    0.1300
87     H87    -1.7276   -1.4007   -3.2834 H        1 ZINC000113648937    0.1300
@<TRIPOS>BOND
1     1     2     1
2     1     45    1
3     1     46    1
4     1     47    1
5     2     3     1
6     2     27    am
7     3     4     1
8     3     48    1
9     3     49    1
10    4     5     1
11    4     50    1
12    4     51    1
13    5     26    1
14    5     6     1
15    6     7     1
16    6     52    1
17    6     53    1
18    7     8     1
19    7     54    1
20    7     55    1
21    8     9     1
22    8     25    1
23    8     56    1
24    9     10    1
25    10    11    2
26    10    12    am
27    12    13    1
28    12    57    1
29    13    18    ar
30    13    14    ar
31    14    15    ar
32    14    58    1
33    15    16    ar
34    15    59    1
35    16    17    ar
36    16    60    1
37    17    18    ar
38    17    61    1
39    18    19    1
40    19    24    ar
41    19    20    ar
42    20    21    ar
43    20    62    1
44    21    22    ar
45    21    63    1
46    22    23    ar
47    22    64    1
48    23    24    ar
49    23    65    1
50    24    66    1
51    25    26    1
52    25    67    1
53    25    68    1
54    26    69    1
55    26    70    1
56    27    28    2
57    27    29    1
58    29    44    ar
59    29    30    ar
60    30    31    ar
61    30    71    1
62    31    32    ar
63    31    72    1
64    32    33    1
65    32    43    ar
66    33    34    1
67    33    73    1
68    33    74    1
69    34    42    1
70    34    35    1
71    35    36    1
72    35    75    1
73    35    76    1
74    36    37    1
75    36    77    1
76    36    78    1
77    37    38    1
78    37    41    1
79    37    79    1
80    38    39    am
81    38    40    2
82    39    80    1
83    39    81    1
84    41    42    1
85    41    82    1
86    41    83    1
87    42    84    1
88    42    85    1
89    43    44    ar
90    43    86    1
91    44    87    1
@<TRIPOS>SUBSTRUCTURE
1   ZINC000113648937 1     RESIDUE    1   A     ZIN   1
