@<TRIPOS>MOLECULE
ZINC000001909562
51    53    1     0     0
SMALL
USER_CHARGES
@<TRIPOS>ATOM
1      C1     -0.1085    1.4617    0.5419 C.3      1 ZINC000001909562   -0.1500
2      C2     -0.0365   -0.0636    0.4457 C.3      1 ZINC000001909562   -0.0200
3      C3     -1.4471   -0.6437    0.5663 C.3      1 ZINC000001909562   -0.1400
4      C4      0.5542   -0.4554   -0.9070 C.3      1 ZINC000001909562   -0.1100
5      C5      0.8184   -1.9657   -0.8999 C.3      1 ZINC000001909562   -0.1100
6      C6      1.9822   -2.2461    0.0482 C.3      1 ZINC000001909562   -0.0300
7      C7      2.1272   -3.7577    0.2356 C.3      1 ZINC000001909562   -0.1600
8      C8      3.2716   -1.6869   -0.5565 C.3      1 ZINC000001909562   -0.1400
9      C9      1.7418   -1.6001    1.3884 C.ar     1 ZINC000001909562   -0.0100
10     C10     0.8160   -0.5926    1.5701 C.ar     1 ZINC000001909562   -0.0700
11     C11     0.6420   -0.0314    2.8243 C.ar     1 ZINC000001909562   -0.0600
12     C12     1.3926   -0.4780    3.9108 C.ar     1 ZINC000001909562   -0.1500
13     C13     1.2028    0.1230    5.2443 C.2      1 ZINC000001909562    0.5600
14     O14     1.8605   -0.2710    6.1880 O.2      1 ZINC000001909562   -0.4900
15     N15     0.3001    1.1088    5.4168 N.am     1 ZINC000001909562   -0.6600
16     C16     0.1973    1.7511    6.6482 C.ar     1 ZINC000001909562    0.1900
17     C17    -1.0447    2.1837    7.1025 C.ar     1 ZINC000001909562   -0.2100
18     C18    -1.1530    2.8197    8.3207 C.ar     1 ZINC000001909562    0.1800
19     F19    -2.3596    3.2387    8.7607 F        1 ZINC000001909562   -0.1100
20     C20    -0.0077    3.0305    9.1028 C.ar     1 ZINC000001909562   -0.2200
21     C21    -0.1162    3.7070   10.4018 C.2      1 ZINC000001909562    0.5200
22     O22    -1.2075    4.0881   10.8040 O.co2    1 ZINC000001909562   -0.6700
23     O23     0.8845    3.8897   11.0821 O.co2    1 ZINC000001909562   -0.6700
24     C24     1.2416    2.5922    8.6393 C.ar     1 ZINC000001909562    0.1800
25     F25     2.3490    2.7912    9.3872 F        1 ZINC000001909562   -0.1100
26     C26     1.3363    1.9526    7.4217 C.ar     1 ZINC000001909562   -0.1900
27     C27     2.3292   -1.5040    3.7240 C.ar     1 ZINC000001909562    0.1800
28     O28     3.0679   -1.9545    4.7691 O.3      1 ZINC000001909562   -0.4600
29     C29     2.4939   -2.0541    2.4641 C.ar     1 ZINC000001909562   -0.0700
30     Cl30    3.6529   -3.3246    2.2265 Cl       1 ZINC000001909562   -0.0400
31     H31     0.8958    1.8784    0.4661 H        1 ZINC000001909562    0.0600
32     H32    -0.7245    1.8482   -0.2700 H        1 ZINC000001909562    0.0600
33     H33    -0.5482    1.7450    1.4982 H        1 ZINC000001909562    0.0600
34     H34    -2.0696   -0.2558   -0.2400 H        1 ZINC000001909562    0.0600
35     H35    -1.4000   -1.7306    0.4982 H        1 ZINC000001909562    0.0600
36     H36    -1.8765   -0.3581    1.5265 H        1 ZINC000001909562    0.0600
37     H37    -0.1514   -0.2098   -1.7007 H        1 ZINC000001909562    0.0700
38     H38     1.4898    0.0802   -1.0681 H        1 ZINC000001909562    0.0700
39     H39    -0.0714   -2.4924   -0.5550 H        1 ZINC000001909562    0.0700
40     H40     1.0758   -2.2981   -1.9056 H        1 ZINC000001909562    0.0700
41     H41     1.7874   -4.2697   -0.6647 H        1 ZINC000001909562    0.0500
42     H42     3.1733   -4.0023    0.4198 H        1 ZINC000001909562    0.0800
43     H43     1.5242   -4.0780    1.0853 H        1 ZINC000001909562    0.0600
44     H44     3.1687   -0.6113   -0.7004 H        1 ZINC000001909562    0.0600
45     H45     4.1049   -1.8852    0.1176 H        1 ZINC000001909562    0.0600
46     H46     3.4597   -2.1657   -1.5174 H        1 ZINC000001909562    0.0600
47     H47    -0.0810    0.7591    2.9617 H        1 ZINC000001909562    0.1400
48     H48    -0.2779    1.3710    4.6833 H        1 ZINC000001909562    0.4100
49     H49    -1.9257    2.0211    6.4993 H        1 ZINC000001909562    0.1400
50     H50     2.2975    1.6147    7.0638 H        1 ZINC000001909562    0.1500
51     H51     2.6601   -2.6858    5.2528 H        1 ZINC000001909562    0.4000
@<TRIPOS>BOND
1     1     2     1
2     1     31    1
3     1     32    1
4     1     33    1
5     2     10    1
6     2     3     1
7     2     4     1
8     3     34    1
9     3     35    1
10    3     36    1
11    4     5     1
12    4     37    1
13    4     38    1
14    5     6     1
15    5     39    1
16    5     40    1
17    6     7     1
18    6     8     1
19    6     9     1
20    7     41    1
21    7     42    1
22    7     43    1
23    8     44    1
24    8     45    1
25    8     46    1
26    9     29    ar
27    9     10    ar
28    10    11    ar
29    11    12    ar
30    11    47    1
31    12    13    1
32    12    27    ar
33    13    14    2
34    13    15    am
35    15    16    1
36    15    48    1
37    16    26    ar
38    16    17    ar
39    17    18    ar
40    17    49    1
41    18    19    1
42    18    20    ar
43    20    21    1
44    20    24    ar
45    21    22    ar
46    21    23    ar
47    24    25    1
48    24    26    ar
49    26    50    1
50    27    28    1
51    27    29    ar
52    28    51    1
53    29    30    1
@<TRIPOS>SUBSTRUCTURE
1   ZINC000001909562 1     RESIDUE    1   A     ZIN   1
