@<TRIPOS>MOLECULE
ZINC000000591953
63    68    1     0     0
SMALL
USER_CHARGES
@<TRIPOS>ATOM
1      C1     -0.0178    1.4608    0.0101 C.3      1 ZINC000000591953    0.0800
2      N2      0.0021   -0.0041    0.0020 N.pl3    1 ZINC000000591953   -0.4800
3      C3      0.0078   -0.7756   -1.1193 C.2      1 ZINC000000591953    0.0900
4      C4      0.0272   -2.0937   -0.7697 C.2      1 ZINC000000591953   -0.1400
5      C5      0.0390   -3.2475   -1.6846 C.2      1 ZINC000000591953   -0.0100
6      C6      1.1165   -3.7121   -2.4297 C.2      1 ZINC000000591953   -0.0500
7      C7      2.4773   -3.1505   -2.4636 C.2      1 ZINC000000591953   -0.1000
8      C8      2.9412   -2.1815   -3.3057 C.2      1 ZINC000000591953    0.0900
9      C9      2.1411   -1.4878   -4.3838 C.3      1 ZINC000000591953   -0.0500
10     C10     3.1187   -0.7833   -5.3320 C.3      1 ZINC000000591953   -0.1200
11     H11     3.6531   -1.5270   -5.9232 H        1 ZINC000000591953    0.1100
12     C12     2.3443    0.1511   -6.2638 C.3      1 ZINC000000591953   -0.0100
13     N13     3.2652    0.7339   -7.2488 N.4      1 ZINC000000591953   -0.3900
14     H14     4.0286    1.1865   -6.7688 H        1 ZINC000000591953    0.4200
15     C15     3.7926   -0.3290   -8.1149 C.3      1 ZINC000000591953   -0.0600
16     C16     2.5471    1.7207   -8.0665 C.3      1 ZINC000000591953   -0.0500
17     C17     4.1192    0.0290   -4.5048 C.3      1 ZINC000000591953   -0.1400
18     C18     5.0611   -0.9225   -3.7625 C.3      1 ZINC000000591953    0.1100
19     N19     4.2598   -1.9190   -3.0352 N.pl3    1 ZINC000000591953   -0.4800
20     C20     4.6888   -2.7143   -2.0082 C.ar     1 ZINC000000591953    0.1100
21     C21     5.9260   -2.8252   -1.3769 C.ar     1 ZINC000000591953   -0.1300
22     C22     6.0282   -3.7484   -0.3498 C.ar     1 ZINC000000591953   -0.0900
23     C23     4.9600   -4.5347    0.0461 C.ar     1 ZINC000000591953   -0.1400
24     C24     3.7205   -4.4444   -0.5650 C.ar     1 ZINC000000591953   -0.0600
25     C25     3.5968   -3.5156   -1.5980 C.ar     1 ZINC000000591953   -0.0800
26     C26     0.6203   -4.8839   -3.1806 C.2      1 ZINC000000591953    0.5600
27     O27     1.2740   -5.5635   -3.9466 O.2      1 ZINC000000591953   -0.4500
28     N28    -0.6746   -5.0727   -2.8750 N.am     1 ZINC000000591953   -0.6900
29     C29    -1.0904   -4.1494   -1.9916 C.2      1 ZINC000000591953    0.5500
30     O30    -2.2107   -4.0648   -1.5293 O.2      1 ZINC000000591953   -0.4400
31     C31     0.0340   -2.1368    0.7032 C.ar     1 ZINC000000591953   -0.0700
32     C32     0.0519   -3.1678    1.6397 C.ar     1 ZINC000000591953   -0.0700
33     C33     0.0535   -2.8677    2.9846 C.ar     1 ZINC000000591953   -0.1300
34     C34     0.0369   -1.5466    3.4072 C.ar     1 ZINC000000591953   -0.0900
35     C35     0.0190   -0.5165    2.4917 C.ar     1 ZINC000000591953   -0.1300
36     C36     0.0236   -0.7983    1.1297 C.ar     1 ZINC000000591953    0.1000
37     H37     1.0048    1.8381    0.0023 H        1 ZINC000000591953    0.0700
38     H38    -0.5450    1.8219   -0.8730 H        1 ZINC000000591953    0.0800
39     H39    -0.5280    1.8123    0.9069 H        1 ZINC000000591953    0.0900
40     H40    -0.0015   -0.4009   -2.1322 H        1 ZINC000000591953    0.1700
41     H41     1.5570   -2.2226   -4.9379 H        1 ZINC000000591953    0.1000
42     H42     1.4746   -0.7535   -3.9314 H        1 ZINC000000591953    0.1000
43     H43     1.5683   -0.4130   -6.7812 H        1 ZINC000000591953    0.1400
44     H44     1.8852    0.9484   -5.6793 H        1 ZINC000000591953    0.1400
45     H45     2.9678   -0.8179   -8.6334 H        1 ZINC000000591953    0.1300
46     H46     4.4759    0.1034   -8.8457 H        1 ZINC000000591953    0.1300
47     H47     4.3253   -1.0612   -7.5081 H        1 ZINC000000591953    0.1200
48     H48     2.1558    2.5093   -7.4239 H        1 ZINC000000591953    0.1200
49     H49     3.2304    2.1531   -8.7974 H        1 ZINC000000591953    0.1300
50     H50     1.7224    1.2317   -8.5850 H        1 ZINC000000591953    0.1200
51     H51     4.6999    0.6720   -5.1662 H        1 ZINC000000591953    0.0800
52     H52     3.5802    0.6427   -3.7831 H        1 ZINC000000591953    0.0900
53     H53     5.7084   -1.4277   -4.4793 H        1 ZINC000000591953    0.0800
54     H54     5.6685   -0.3568   -3.0560 H        1 ZINC000000591953    0.1000
55     H55     6.7680   -2.2184   -1.6756 H        1 ZINC000000591953    0.1300
56     H56     6.9740   -3.8590    0.1597 H        1 ZINC000000591953    0.1300
57     H57     5.0971   -5.2384    0.8538 H        1 ZINC000000591953    0.1300
58     H58     2.8893   -5.0596   -0.2537 H        1 ZINC000000591953    0.1300
59     H59    -1.2305   -5.7798   -3.2380 H        1 ZINC000000591953    0.4300
60     H60     0.0642   -4.1972    1.3134 H        1 ZINC000000591953    0.1200
61     H61     0.0674   -3.6649    3.7131 H        1 ZINC000000591953    0.1300
62     H62     0.0376   -1.3230    4.4638 H        1 ZINC000000591953    0.1300
63     H63     0.0062    0.5086    2.8315 H        1 ZINC000000591953    0.1200
@<TRIPOS>BOND
1     1     2     1
2     1     37    1
3     1     38    1
4     1     39    1
5     2     36    1
6     2     3     1
7     3     4     2
8     3     40    1
9     4     5     1
10    4     31    1
11    5     29    1
12    5     6     2
13    6     7     1
14    6     26    1
15    7     25    1
16    7     8     2
17    8     19    1
18    8     9     1
19    9     10    1
20    9     41    1
21    9     42    1
22    10    11    1
23    10    12    1
24    10    17    1
25    12    13    1
26    12    43    1
27    12    44    1
28    13    14    1
29    13    15    1
30    13    16    1
31    15    45    1
32    15    46    1
33    15    47    1
34    16    48    1
35    16    49    1
36    16    50    1
37    17    18    1
38    17    51    1
39    17    52    1
40    18    19    1
41    18    53    1
42    18    54    1
43    19    20    1
44    20    25    ar
45    20    21    ar
46    21    22    ar
47    21    55    1
48    22    23    ar
49    22    56    1
50    23    24    ar
51    23    57    1
52    24    25    ar
53    24    58    1
54    26    27    2
55    26    28    am
56    28    29    am
57    28    59    1
58    29    30    2
59    31    36    ar
60    31    32    ar
61    32    33    ar
62    32    60    1
63    33    34    ar
64    33    61    1
65    34    35    ar
66    34    62    1
67    35    36    ar
68    35    63    1
@<TRIPOS>SUBSTRUCTURE
1   ZINC000000591953 1     RESIDUE    1   A     ZIN   1
