@<TRIPOS>MOLECULE
ZINC000000537908
  51   55    0    0    0
SMALL
USER_CHARGES
NO_NAME
@<TRIPOS>ATOM
    1 O1       -0.1218     0.3076    -0.4914 O.2    1 <0>      -0.4800
    2 C2       -0.0528     1.4660    -0.1390 C.2    1 <0>       0.5500
    3 N3       -1.0774     2.2453     0.2465 N.am   1 <0>      -0.5000
    4 C4       -2.4091     1.8155     0.2969 C.ar   1 <0>       0.1200
    5 C5       -3.3443     2.3429    -0.5838 C.ar   1 <0>      -0.1100
    6 C6       -4.6570     1.9166    -0.5318 C.ar   1 <0>      -0.1100
    7 C7       -5.0405     0.9659     0.3963 C.ar   1 <0>      -0.1100
    8 C8       -4.1117     0.4391     1.2750 C.ar   1 <0>      -0.1100
    9 C9       -2.7962     0.8567     1.2240 C.ar   1 <0>      -0.1000
   10 C10      -0.6612     3.5327     0.5916 C.ar   1 <0>       0.1500
   11 C11      -1.3863     4.6359     1.0366 C.ar   1 <0>      -0.1300
   12 C12      -0.7399     5.8222     1.3174 C.ar   1 <0>      -0.0800
   13 C13       0.6298     5.9260     1.1605 C.ar   1 <0>      -0.1300
   14 C14       1.3572     4.8339     0.7192 C.ar   1 <0>      -0.0700
   15 C15       0.7147     3.6496     0.4380 C.ar   1 <0>      -0.1200
   16 C16       1.2047     2.3037    -0.0444 C.3    1 <0>      -0.0300
   17 C17       2.1808     1.6956     0.9647 C.3    1 <0>      -0.0600
   18 C18       1.4933     1.5378     2.2964 C.ar   1 <0>      -0.0500
   19 C19       1.4934     2.5702     3.2219 C.ar   1 <0>      -0.1500
   20 C20       0.8525     2.3891     4.4329 C.ar   1 <0>       0.1000
   21 N21       0.2468     1.2514     4.7120 N.ar   1 <0>      -0.4800
   22 C22       0.2266     0.2484     3.8561 C.ar   1 <0>       0.1000
   23 C23       0.8408     0.3588     2.6230 C.ar   1 <0>      -0.1700
   24 C24       1.8645     2.4345    -1.4186 C.3    1 <0>      -0.0600
   25 C25       0.8966     3.0719    -2.3819 C.ar   1 <0>      -0.0500
   26 C26      -0.0131     2.3003    -3.0886 C.ar   1 <0>      -0.1700
   27 C27      -0.8854     2.9199    -3.9634 C.ar   1 <0>       0.1000
   28 N28      -0.8585     4.2278    -4.1295 N.ar   1 <0>      -0.4800
   29 C29      -0.0072     4.9927    -3.4744 C.ar   1 <0>       0.1000
   30 C30       0.8909     4.4444    -2.5783 C.ar   1 <0>      -0.1500
   31 H31      -3.0456     3.0860    -1.3084 H      1 <0>       0.1200
   32 H32      -5.3848     2.3264    -1.2165 H      1 <0>       0.1300
   33 H33      -6.0676     0.6344     0.4352 H      1 <0>       0.1300
   34 H34      -4.4144    -0.3028     1.9991 H      1 <0>       0.1300
   35 H35      -2.0713     0.4449     1.9105 H      1 <0>       0.1200
   36 H36      -2.4566     4.5626     1.1616 H      1 <0>       0.1200
   37 H37      -1.3072     6.6744     1.6613 H      1 <0>       0.1300
   38 H38       1.1310     6.8569     1.3813 H      1 <0>       0.1300
   39 H39       2.4272     4.9113     0.5951 H      1 <0>       0.1300
   40 H40       2.5108     0.7198     0.6083 H      1 <0>       0.0900
   41 H41       3.0436     2.3523     1.0768 H      1 <0>       0.1000
   42 H42       1.9883     3.5040     2.9994 H      1 <0>       0.1300
   43 H43       0.8479     3.1884     5.1592 H      1 <0>       0.1500
   44 H44      -0.2794    -0.6685     4.1202 H      1 <0>       0.1500
   45 H45       0.8205    -0.4660     1.9261 H      1 <0>       0.1300
   46 H46       2.7566     3.0554    -1.3357 H      1 <0>       0.1000
   47 H47       2.1425     1.4458    -1.7837 H      1 <0>       0.0900
   48 H48      -0.0396     1.2287    -2.9574 H      1 <0>       0.1300
   49 H49      -1.5971     2.3260    -4.5176 H      1 <0>       0.1500
   50 H50      -0.0145     6.0604    -3.6369 H      1 <0>       0.1600
   51 H51       1.5854     5.0761    -2.0445 H      1 <0>       0.1300
@<TRIPOS>BOND
   1    1    2 2
   2    2   16 1
   3    2    3 am
   4    3    4 1
   5    3   10 1
   6    4    9 ar
   7    4    5 ar
   8    5    6 ar
   9    5   31 1
  10    6    7 ar
  11    6   32 1
  12    7    8 ar
  13    7   33 1
  14    8    9 ar
  15    8   34 1
  16    9   35 1
  17   10   15 ar
  18   10   11 ar
  19   11   12 ar
  20   11   36 1
  21   12   13 ar
  22   12   37 1
  23   13   14 ar
  24   13   38 1
  25   14   15 ar
  26   14   39 1
  27   15   16 1
  28   16   17 1
  29   16   24 1
  30   17   18 1
  31   17   40 1
  32   17   41 1
  33   18   23 ar
  34   18   19 ar
  35   19   20 ar
  36   19   42 1
  37   20   21 ar
  38   20   43 1
  39   21   22 ar
  40   22   23 ar
  41   22   44 1
  42   23   45 1
  43   24   25 1
  44   24   46 1
  45   24   47 1
  46   25   30 ar
  47   25   26 ar
  48   26   27 ar
  49   26   48 1
  50   27   28 ar
  51   27   49 1
  52   28   29 ar
  53   29   30 ar
  54   29   50 1
  55   30   51 1
