@<TRIPOS>MOLECULE
ZINC000003780188
41    42    1     0     0
SMALL
USER_CHARGES
@<TRIPOS>ATOM
1      C1     -0.0187    1.5258    0.0104 C.3      1 ZINC000003780188   -0.1500
2      C2      0.0021   -0.0041    0.0020 C.3      1 ZINC000003780188   -0.0900
3      H3     -1.0205   -0.3814    0.0098 H        1 ZINC000003780188    0.0800
4      C4      0.7182   -0.4975   -1.2568 C.3      1 ZINC000003780188   -0.1300
5      C5      0.7390   -2.0273   -1.2652 C.3      1 ZINC000003780188    0.0900
6      H6     -0.2836   -2.4046   -1.2575 H        1 ZINC000003780188    0.0900
7      O7      1.4186   -2.4956   -2.4598 O.3      1 ZINC000003780188   -0.3500
8      C8      0.6625   -2.7030   -3.5493 C.2      1 ZINC000003780188    0.4400
9      O9     -0.5278   -2.5000   -3.5062 O.2      1 ZINC000003780188   -0.4900
10     C10     1.2982   -3.1891   -4.8263 C.3      1 ZINC000003780188    0.1400
11     H11     2.0496   -3.9479   -4.6079 H        1 ZINC000003780188    0.1300
12     C12     1.9378   -2.0074   -5.5886 C.3      1 ZINC000003780188   -0.1200
13     C13     0.7963   -1.5958   -6.5471 C.3      1 ZINC000003780188   -0.1600
14     C14    -0.0298   -2.8536   -6.7019 C.2      1 ZINC000003780188    0.5300
15     O15    -0.8480   -3.0439   -7.5767 O.2      1 ZINC000003780188   -0.5200
16     N16     0.2755   -3.7317   -5.7283 N.am     1 ZINC000003780188   -0.7100
17     C17     1.4790   -2.5342   -0.0257 C.3      1 ZINC000003780188   -0.1000
18     C18     0.7628   -2.0407    1.2331 C.3      1 ZINC000003780188   -0.0600
19     C19    -0.6726   -2.5703    1.2440 C.3      1 ZINC000003780188   -0.1500
20     C20     1.5028   -2.5476    2.4727 C.3      1 ZINC000003780188   -0.1400
21     C21     0.7421   -0.5109    1.2415 C.3      1 ZINC000003780188   -0.1100
22     H22     1.0039    1.9031    0.0027 H        1 ZINC000003780188    0.0600
23     H23    -0.5459    1.8868   -0.8726 H        1 ZINC000003780188    0.0600
24     H24    -0.5289    1.8773    0.9072 H        1 ZINC000003780188    0.0600
25     H25     0.1910   -0.1364   -2.1398 H        1 ZINC000003780188    0.0700
26     H26     1.7408   -0.1202   -1.2645 H        1 ZINC000003780188    0.0700
27     H27     2.1880   -1.1937   -4.9078 H        1 ZINC000003780188    0.1000
28     H28     2.8166   -2.3323   -6.1454 H        1 ZINC000003780188    0.1100
29     H29     0.1979   -0.7980   -6.1072 H        1 ZINC000003780188    0.1100
30     H30     1.2007   -1.2840   -7.5101 H        1 ZINC000003780188    0.1100
31     H31    -0.1286   -4.6086   -5.6357 H        1 ZINC000003780188    0.4200
32     H32     1.4937   -3.6240   -0.0317 H        1 ZINC000003780188    0.0700
33     H33     2.5015   -2.1569   -0.0334 H        1 ZINC000003780188    0.0800
34     H34    -0.6578   -3.6602    1.2380 H        1 ZINC000003780188    0.0600
35     H35    -1.1828   -2.2188    2.1408 H        1 ZINC000003780188    0.0600
36     H36    -1.1998   -2.2092    0.3609 H        1 ZINC000003780188    0.0600
37     H37     2.5254   -2.1703    2.4649 H        1 ZINC000003780188    0.0600
38     H38     0.9926   -2.1961    3.3695 H        1 ZINC000003780188    0.0600
39     H39     1.5176   -3.6375    2.4667 H        1 ZINC000003780188    0.0600
40     H40     1.7647   -0.1336    1.2338 H        1 ZINC000003780188    0.0700
41     H41     0.2319   -0.1594    2.1383 H        1 ZINC000003780188    0.0700
@<TRIPOS>BOND
1     1     2     1
2     1     22    1
3     1     23    1
4     1     24    1
5     2     3     1
6     2     21    1
7     2     4     1
8     4     5     1
9     4     25    1
10    4     26    1
11    5     6     1
12    5     7     1
13    5     17    1
14    7     8     1
15    8     9     2
16    8     10    1
17    10    11    1
18    10    16    1
19    10    12    1
20    12    13    1
21    12    27    1
22    12    28    1
23    13    14    1
24    13    29    1
25    13    30    1
26    14    15    2
27    14    16    am
28    16    31    1
29    17    18    1
30    17    32    1
31    17    33    1
32    18    19    1
33    18    20    1
34    18    21    1
35    19    34    1
36    19    35    1
37    19    36    1
38    20    37    1
39    20    38    1
40    20    39    1
41    21    40    1
42    21    41    1
@<TRIPOS>SUBSTRUCTURE
1   ZINC000003780188 1     RESIDUE    1   A     ZIN   1
