@<TRIPOS>MOLECULE
ZINC000000600558
37    39    1     0     0
SMALL
USER_CHARGES
@<TRIPOS>ATOM
1      N1     -0.7812   -0.6329   -0.8151 N.am     1 ZINC000000600558   -1.2500
2      S2     -0.1422   -0.8123    0.7021 S.o2     1 ZINC000000600558    2.7000
3      O3     -0.2629    0.4515    1.3404 O.2      1 ZINC000000600558   -0.9600
4      O4     -0.6984   -2.0074    1.2329 O.2      1 ZINC000000600558   -0.9600
5      C5      1.5838   -1.1097    0.5094 C.ar     1 ZINC000000600558   -0.6700
6      C6      2.0502   -2.4047    0.3767 C.ar     1 ZINC000000600558    0.0000
7      C7      3.4025   -2.6411    0.2255 C.ar     1 ZINC000000600558   -0.1200
8      C8      4.2941   -1.5766    0.2067 C.ar     1 ZINC000000600558    0.2000
9      N9      5.6662   -1.8130    0.0530 N.pl3    1 ZINC000000600558   -0.3200
10     N10     6.2568   -2.6770   -0.8780 N.2      1 ZINC000000600558   -0.2100
11     C11     7.5559   -2.6335   -0.7202 C.2      1 ZINC000000600558    0.0000
12     C12     8.5654   -3.4139   -1.5221 C.3      1 ZINC000000600558    0.5600
13     F13     7.9111   -4.1120   -2.5427 F        1 ZINC000000600558   -0.1600
14     F14     9.4971   -2.5335   -2.0825 F        1 ZINC000000600558   -0.1600
15     F15     9.2251   -4.3206   -0.6856 F        1 ZINC000000600558   -0.1600
16     C16     7.8501   -1.7439    0.3136 C.2      1 ZINC000000600558   -0.2000
17     C17     6.6693   -1.2380    0.7800 C.2      1 ZINC000000600558    0.1400
18     C18     6.5072   -0.2570    1.8751 C.ar     1 ZINC000000600558   -0.0500
19     C19     5.3238   -0.2208    2.6134 C.ar     1 ZINC000000600558   -0.0900
20     C20     5.1782    0.6963    3.6336 C.ar     1 ZINC000000600558   -0.1000
21     C21     6.2035    1.5801    3.9252 C.ar     1 ZINC000000600558   -0.0200
22     Cl22    6.0130    2.7319    5.2100 Cl       1 ZINC000000600558   -0.0500
23     C23     7.3803    1.5485    3.1962 C.ar     1 ZINC000000600558   -0.1100
24     C24     7.5393    0.6319    2.1775 C.ar     1 ZINC000000600558   -0.0700
25     C25     3.8225   -0.2773    0.3401 C.ar     1 ZINC000000600558   -0.1300
26     C26     2.4685   -0.0472    0.4854 C.ar     1 ZINC000000600558    0.0000
27     H27    -0.2072   -0.7005   -1.5942 H        1 ZINC000000600558    0.4200
28     H28    -1.7300   -0.4641   -0.9249 H        1 ZINC000000600558    0.4200
29     H29     1.3563   -3.2322    0.3917 H        1 ZINC000000600558    0.1600
30     H30     3.7663   -3.6527    0.1223 H        1 ZINC000000600558    0.1500
31     H31     8.8361   -1.4956    0.6775 H        1 ZINC000000600558    0.1700
32     H32     4.5231   -0.9092    2.3864 H        1 ZINC000000600558    0.1300
33     H33     4.2627    0.7253    4.2058 H        1 ZINC000000600558    0.1400
34     H34     8.1768    2.2400    3.4282 H        1 ZINC000000600558    0.1500
35     H35     8.4578    0.6079    1.6098 H        1 ZINC000000600558    0.1400
36     H36     4.5135    0.5526    0.3259 H        1 ZINC000000600558    0.1500
37     H37     2.1011    0.9631    0.5889 H        1 ZINC000000600558    0.1600
@<TRIPOS>BOND
1     1     2     am
2     1     27    1
3     1     28    1
4     2     3     2
5     2     4     2
6     2     5     1
7     5     26    ar
8     5     6     ar
9     6     7     ar
10    6     29    1
11    7     8     ar
12    7     30    1
13    8     9     1
14    8     25    ar
15    9     17    1
16    9     10    1
17    10    11    2
18    11    12    1
19    11    16    1
20    12    13    1
21    12    14    1
22    12    15    1
23    16    17    2
24    16    31    1
25    17    18    1
26    18    24    ar
27    18    19    ar
28    19    20    ar
29    19    32    1
30    20    21    ar
31    20    33    1
32    21    22    1
33    21    23    ar
34    23    24    ar
35    23    34    1
36    24    35    1
37    25    26    ar
38    25    36    1
39    26    37    1
@<TRIPOS>SUBSTRUCTURE
1   ZINC000000600558 1     RESIDUE    1   A     ZIN   1
