#	Name: ASD08190002
#	Creating user name:	WinNT
#	Creation time:	15. 06. 2019 21:19

#	Modifying user name:	WinNT
#	Modification time:	15. 06. 2019 21:19

#	Program:	/corina/corina34_cracker 3.40 0067  02.08.2006

@<TRIPOS>MOLECULE
ASD08190002
  39   40    0    0    0
SMALL
NO_CHARGES


@<TRIPOS>ATOM
   1 C1            -0.0165     1.3630     0.0095 C.2     
   2 C2             0.0021    -0.0041     0.0020 C.2     
   3 N3             1.2078    -0.6623    -0.0130 N.am    
   4 C4             2.3614     0.0307    -0.0199 C.2     
   5 N5             2.3614     1.3761    -0.0122 N.am    
   6 C6             1.2011     2.0614     0.0017 C.2     
   7 O7             1.2089     3.2805     0.0086 O.2     
   8 O8             3.4195    -0.5681    -0.0328 O.2     
   9 C9             3.6337     2.1023    -0.0195 C.3     
  10 C10            3.7079     2.9887    -1.2644 C.3     
  11 C11            3.7303     2.9744     1.2339 C.3     
  12 N12           -1.1725    -0.7119     0.0099 N.pl3   
  13 C13           -1.1450    -2.1767     0.0018 C.3     
  14 C14           -0.9955    -2.6919     1.4346 C.3     
  15 C15           -2.4290    -2.6999    -0.5888 C.ar    
  16 C16           -2.4052    -3.7899    -1.4386 C.ar    
  17 C17           -3.6312    -2.0932    -0.2763 C.ar    
  18 C18           -4.8089    -2.5731    -0.8180 C.ar    
  19 C19           -4.7845    -3.6594    -1.6726 C.ar    
  20 C20           -3.5830    -4.2698    -1.9803 C.ar    
  21 H21           -0.9546     1.8979     0.0169 H       
  22 H22            1.2278    -1.6320    -0.0184 H       
  23 H23            4.4586     1.3900    -0.0310 H       
  24 H24            4.6545     3.5290    -1.2698 H       
  25 H25            3.6390     2.3674    -2.1574 H       
  26 H26            2.8829     3.7010    -1.2529 H       
  27 H27            3.6774     2.3430     2.1208 H       
  28 H28            4.6769     3.5147     1.2285 H       
  29 H29            2.9054     3.6868     1.2454 H       
  30 H30           -2.0214    -0.2428     0.0208 H       
  31 H31           -0.3025    -2.5210    -0.5979 H       
  32 H32           -0.9751    -3.7817     1.4286 H       
  33 H33           -0.0669    -2.3135     1.8617 H       
  34 H34           -1.8381    -2.3476     2.0343 H       
  35 H35           -1.4664    -4.2664    -1.6795 H       
  36 H36           -3.6503    -1.2445     0.3914 H       
  37 H37           -5.7483    -2.0996    -0.5733 H       
  38 H38           -5.7047    -4.0346    -2.0955 H       
  39 H39           -3.5639    -5.1185    -2.6479 H       
@<TRIPOS>BOND
   1    1    2 2
   2    1    6 1
   3    1   21 1
   4    2    3 1
   5    2   12 1
   6    3    4 am
   7    3   22 1
   8    4    5 am
   9    4    8 2
  10    5    6 am
  11    5    9 1
  12    6    7 2
  13    9   10 1
  14    9   11 1
  15    9   23 1
  16   10   24 1
  17   10   25 1
  18   10   26 1
  19   11   27 1
  20   11   28 1
  21   11   29 1
  22   12   13 1
  23   12   30 1
  24   13   14 1
  25   13   15 1
  26   13   31 1
  27   14   32 1
  28   14   33 1
  29   14   34 1
  30   15   16 ar
  31   15   17 ar
  32   16   20 ar
  33   16   35 1
  34   17   18 ar
  35   17   36 1
  36   18   19 ar
  37   18   37 1
  38   19   20 ar
  39   19   38 1
  40   20   39 1

#	End of record

