#	Name: ASD07260004
#	Creating user name:	WinNT
#	Creation time:	15. 06. 2019 21:09

#	Modifying user name:	WinNT
#	Modification time:	15. 06. 2019 21:09

#	Program:	/corina/corina34_cracker 3.40 0067  02.08.2006

@<TRIPOS>MOLECULE
ASD07260004
  23   22    0    0    0
SMALL
NO_CHARGES


@<TRIPOS>ATOM
   1 C1            -0.0161     1.3381     0.0094 C.2     
   2 O2             0.0021    -0.0041     0.0020 O.3     
   3 C3             3.4633     2.4302     1.1701 C.3     
   4 C4             2.0977     1.7439     1.2407 C.3     
   5 C5             1.2786     2.1093     0.0012 C.3     
   6 N6             0.9914     3.5458     0.0116 N.am    
   7 O7             0.7676     3.5844    -2.1979 O.2     
   8 C8             0.7484     4.1929    -1.1454 C.2     
   9 N9             0.4842     5.5145    -1.1358 N.am    
  10 C10            4.2701     2.0703     2.3910 C.2     
  11 O11            3.8010     1.3399     3.2314 O.2     
  12 O12           -1.0706     1.9279     0.0176 O.2     
  13 O13            5.5099     2.5613     2.5448 O.3     
  14 H14           -0.8535    -0.4548     0.0078 H       
  15 H15            3.9906     2.0989     0.2755 H       
  16 H16            3.3253     3.5107     1.1313 H       
  17 H17            2.2357     0.6634     1.2795 H       
  18 H18            1.5704     2.0752     2.1353 H       
  19 H19            1.8451     1.8585    -0.8956 H       
  20 H20            0.9761     4.0312     0.8513 H       
  21 H21            0.4689     5.9999    -0.2961 H       
  22 H22            0.3094     5.9802    -1.9685 H       
  23 H23            5.9886     2.3023     3.3441 H       
@<TRIPOS>BOND
   1    1    2 1
   2    1    5 1
   3    1   12 2
   4    2   14 1
   5    3   10 1
   6    3    4 1
   7    3   15 1
   8    3   16 1
   9    4    5 1
  10    4   17 1
  11    4   18 1
  12    5    6 1
  13    5   19 1
  14    6    8 am
  15    6   20 1
  16    7    8 2
  17    8    9 am
  18    9   21 1
  19    9   22 1
  20   10   11 2
  21   10   13 1
  22   13   23 1

#	End of record

