#	Name: ASD01140147
#	Creating user name:	WinNT
#	Creation time:	15. 06. 2019 19:00

#	Modifying user name:	WinNT
#	Modification time:	15. 06. 2019 19:00

#	Program:	/corina/corina34_cracker 3.40 0067  02.08.2006

@<TRIPOS>MOLECULE
ASD01140147
  32   34    0    0    0
SMALL
NO_CHARGES


@<TRIPOS>ATOM
   1 O1             0.1932    -0.0209     0.0183 O.2     
   2 C2             0.0957     1.1879     0.0119 C.2     
   3 C3             1.3458     2.0241     0.0447 C.3     
   4 N4             1.4291     2.8000    -1.1921 N.2     
   5 C5             0.5533     3.6920    -1.4942 C.2     
   6 C6            -0.6082     4.0464    -0.6635 C.ar    
   7 C7            -1.3718     3.1015     0.0186 C.ar    
   8 N8            -1.1147     1.7404    -0.0296 N.am    
   9 C9            -2.4571     3.5251     0.7885 C.ar    
  10 C10           -2.7774     4.8619     0.8752 C.ar    
  11 C11           -2.0212     5.8032     0.1965 C.ar    
  12 C12           -0.9475     5.4046    -0.5652 C.ar    
  13 N13           -2.3687     7.2390     0.2910 N.pl3   
  14 O14           -3.3194     7.5923     0.9654 O.2     
  15 O15           -1.7039     8.0670    -0.3057 O.2     
  16 C16            0.7266     4.4163    -2.7743 C.ar    
  17 C17            1.8224     5.2589    -2.9595 C.ar    
  18 C18            1.9788     5.9307    -4.1545 C.ar    
  19 C19            1.0515     5.7704    -5.1687 C.ar    
  20 C20           -0.0379     4.9365    -4.9925 C.ar    
  21 C21           -0.2033     4.2542    -3.8031 C.ar    
  22 Cl22          -1.5706     3.2074    -3.5832 Cl      
  23 H23            1.3101     2.7007     0.8984 H       
  24 H24            2.2173     1.3746     0.1276 H       
  25 H25           -1.8769     1.1436    -0.0913 H       
  26 H26           -3.0515     2.7973     1.3208 H       
  27 H27           -3.6199     5.1766     1.4732 H       
  28 H28           -0.3611     6.1427    -1.0921 H       
  29 H29            2.5471     5.3855    -2.1688 H       
  30 H30            2.8270     6.5835    -4.2984 H       
  31 H31            1.1786     6.2989    -6.1019 H       
  32 H32           -0.7585     4.8158    -5.7879 H       
@<TRIPOS>BOND
   1    1    2 2
   2    2    3 1
   3    2    8 am
   4    3    4 1
   5    3   23 1
   6    3   24 1
   7    4    5 2
   8    5    6 1
   9    5   16 1
  10    6    7 ar
  11    6   12 ar
  12    7    8 1
  13    7    9 ar
  14    8   25 1
  15    9   10 ar
  16    9   26 1
  17   10   11 ar
  18   10   27 1
  19   11   12 ar
  20   11   13 1
  21   12   28 1
  22   13   14 2
  23   13   15 2
  24   16   17 ar
  25   16   21 ar
  26   17   18 ar
  27   17   29 1
  28   18   19 ar
  29   18   30 1
  30   19   20 ar
  31   19   31 1
  32   20   21 ar
  33   20   32 1
  34   21   22 1

#	End of record

