#	Name: ASD01720154
#	Creating user name:	WinNT
#	Creation time:	15. 06. 2019 19:23

#	Modifying user name:	WinNT
#	Modification time:	15. 06. 2019 19:23

#	Program:	/corina/corina34_cracker 3.40 0067  02.08.2006

@<TRIPOS>MOLECULE
ASD01720154
  50   52    0    0    0
SMALL
NO_CHARGES


@<TRIPOS>ATOM
   1 F1            -4.7017     1.1528    -7.2609 F       
   2 F2            -6.7258     2.0685    -7.7934 F       
   3 F3            -6.0986     0.0721    -8.7100 F       
   4 F4            -4.4847    -3.0720     6.0030 F       
   5 F5            -6.4291    -3.9462     5.1817 F       
   6 F6            -6.1679    -1.6815     5.3301 F       
   7 O7            -0.4092     1.8338    -0.9548 O.3     
   8 N8            -2.4405    -0.0396    -1.8137 N.pl3   
   9 N9            -4.4540    -0.3751    -2.9721 N.ar    
  10 N10           -4.2410    -1.1708    -0.8220 N.ar    
  11 N11           -6.0140    -2.3093     0.2141 N.pl3   
  12 N12           -6.2069    -1.4879    -1.9775 N.ar    
  13 N13           -5.9870    -0.0376    -5.2985 N.ar    
  14 N14           -3.6524    -3.1053     3.5057 N.ar    
  15 C15           -0.2632     0.4208    -0.7993 C.3     
  16 C16           -1.6403    -0.2152    -0.5992 C.3     
  17 C17            0.3920    -0.1650    -2.0516 C.3     
  18 C18            0.6149     0.1299     0.4193 C.3     
  19 C19           -3.7277    -0.5345    -1.8697 C.ar    
  20 C20           -5.6935    -0.8518    -3.0258 C.ar    
  21 C21           -5.4804    -1.6475    -0.8757 C.ar    
  22 C22           -6.5046    -0.6736    -4.2561 C.ar    
  23 C23           -5.2167    -2.5777     1.3255 C.ar    
  24 C24           -7.8028    -1.1750    -4.3057 C.ar    
  25 C25           -5.7615    -2.5974     2.6087 C.ar    
  26 C26           -6.6726     0.1420    -6.4079 C.ar    
  27 C27           -3.8533    -2.8341     1.1827 C.ar    
  28 C28           -4.9385    -2.8677     3.6822 C.ar    
  29 C29           -8.5479    -1.0007    -5.4603 C.ar    
  30 C30           -7.9682    -0.3299    -6.5269 C.ar    
  31 C31           -3.0993    -3.0958     2.3073 C.ar    
  32 C32           -6.0383     0.8719    -7.5638 C.3     
  33 C33           -5.5154    -2.8923     5.0742 C.3     
  34 H34           -2.1436     0.2647     0.2401 H       
  35 H35           -1.5226    -1.2789    -0.3923 H       
  36 H36            0.1481     0.5473     1.3115 H       
  37 H37            0.7263    -0.9479     0.5379 H       
  38 H38            1.3731     0.2881    -2.1942 H       
  39 H39            0.5034    -1.2428    -1.9331 H       
  40 H40           -0.2336     0.0423    -2.9198 H       
  41 H41            1.5960     0.5830     0.2768 H       
  42 H42           -2.0657     0.4246    -2.5786 H       
  43 H43            0.4258     2.3034    -1.0861 H       
  44 H44           -6.9434    -2.5869     0.2056 H       
  45 H45           -8.2226    -1.6929    -3.4560 H       
  46 H46           -6.8132    -2.4041     2.7600 H       
  47 H47           -3.3945    -2.8282     0.2050 H       
  48 H48           -9.5572    -1.3788    -5.5286 H       
  49 H49           -8.5224    -0.1771    -7.4411 H       
  50 H50           -2.0427    -3.2950     2.2062 H       
@<TRIPOS>BOND
   1    1   32 1
   2    2   32 1
   3    3   32 1
   4    4   33 1
   5    5   33 1
   6    6   33 1
   7    7   15 1
   8    7   43 1
   9    8   16 1
  10    8   19 1
  11    8   42 1
  12    9   19 ar
  13    9   20 ar
  14   10   19 ar
  15   10   21 ar
  16   11   21 1
  17   11   23 1
  18   11   44 1
  19   12   20 ar
  20   12   21 ar
  21   13   22 ar
  22   13   26 ar
  23   14   28 ar
  24   14   31 ar
  25   15   16 1
  26   15   17 1
  27   15   18 1
  28   16   34 1
  29   16   35 1
  30   17   38 1
  31   17   39 1
  32   17   40 1
  33   18   36 1
  34   18   37 1
  35   18   41 1
  36   20   22 1
  37   22   24 ar
  38   23   25 ar
  39   23   27 ar
  40   24   29 ar
  41   24   45 1
  42   25   28 ar
  43   25   46 1
  44   26   30 ar
  45   26   32 1
  46   27   31 ar
  47   27   47 1
  48   28   33 1
  49   29   30 ar
  50   29   48 1
  51   30   49 1
  52   31   50 1

#	End of record

