#	Name: ASD04920001
#	Creating user name:	WinNT
#	Creation time:	15. 06. 2019 20:56

#	Modifying user name:	WinNT
#	Modification time:	15. 06. 2019 20:56

#	Program:	/corina/corina34_cracker 3.40 0067  02.08.2006

@<TRIPOS>MOLECULE
ASD04920001
  20   20    0    0    0
SMALL
NO_CHARGES


@<TRIPOS>ATOM
   1 C1            -0.0189     1.5420     0.0105 C.3     
   2 C2             0.0021    -0.0041     0.0020 C.3     
   3 C3             1.4890     1.8776    -0.0021 C.3     
   4 C4             3.5254     0.7175     1.1086 C.3     
   5 C5             3.5117     1.0967     2.5670 C.2     
   6 C6             1.3442    -0.3602     0.6025 C.2     
   7 N7             2.3930     1.3544     3.1562 N.2     
   8 N8             2.1544     0.7123     0.5924 N.am    
   9 O9             4.6692     1.1669     3.2567 O.3     
  10 O10            1.6451    -1.4540     1.0313 O.2     
  11 H11           -0.5124     1.9304    -0.8804 H       
  12 H12           -0.4952     1.9207     0.9148 H       
  13 H13           -0.8074    -0.3999     0.6154 H       
  14 H14           -0.0716    -0.3810    -1.0181 H       
  15 H15            1.8335     2.0274    -1.0253 H       
  16 H16            1.6822     2.7681     0.5960 H       
  17 H17            4.1209     1.4402     0.5508 H       
  18 H18            3.9599    -0.2758     0.9955 H       
  19 H19            2.3841     1.5985     4.0949 H       
  20 H20            4.5598     1.4175     4.1842 H       
@<TRIPOS>BOND
   1    1    2 1
   2    1    3 1
   3    1   11 1
   4    1   12 1
   5    2    6 1
   6    2   13 1
   7    2   14 1
   8    3    8 1
   9    3   15 1
  10    3   16 1
  11    4    5 1
  12    4    8 1
  13    4   17 1
  14    4   18 1
  15    5    7 2
  16    5    9 1
  17    6    8 am
  18    6   10 2
  19    7   19 1
  20    9   20 1

#	End of record

