#	Name: ASD03320068
#	Creating user name:	WinNT
#	Creation time:	15. 06. 2019 20:36

#	Modifying user name:	WinNT
#	Modification time:	15. 06. 2019 20:36

#	Program:	/corina/corina34_cracker 3.40 0067  02.08.2006

@<TRIPOS>MOLECULE
ASD03320068
  49   52    0    0    0
SMALL
NO_CHARGES


@<TRIPOS>ATOM
   1 C1            -0.0181     1.4709     0.0148 C.2     
   2 C2             0.0015    -0.0045     0.0118 C.ar    
   3 C3             1.2192    -0.6978     0.0013 C.ar    
   4 C4             1.1850    -2.0893    -0.0007 C.ar    
   5 C5            -0.0614    -2.7401     0.0078 C.ar    
   6 N6            -1.1881    -2.0440     0.0172 N.ar    
   7 C7            -1.1932    -0.7273     0.0251 C.ar    
   8 O8             1.0268     2.0928     0.0082 O.2     
   9 N9            -1.1942     2.1292     0.0193 N.am    
  10 C10           -1.2149     3.5249     0.1327 C.ar    
  11 C11           -2.1832     4.2618    -0.5363 C.ar    
  12 C12           -2.2033     5.6379    -0.4236 C.ar    
  13 C13           -1.2565     6.2842     0.3576 C.ar    
  14 C14           -0.2886     5.5487     1.0258 C.ar    
  15 C15           -0.2707     4.1721     0.9187 C.ar    
  16 O16           -1.2769     7.6393     0.4681 O.3     
  17 C17           -0.2723     8.2385     1.2889 C.3     
  18 F18           -0.3874     7.7530     2.5959 F       
  19 F19            0.9931     7.9216     0.7834 F       
  20 Cl20          -0.4874    10.0286     1.2916 Cl      
  21 N21            2.6868    -4.0136     0.6894 N.pl3   
  22 N22            3.9920    -4.4247     0.3901 N.2     
  23 C23            4.5134    -3.5711    -0.4542 C.2     
  24 C24            3.5678    -2.5829    -0.7288 C.2     
  25 C25            2.4404    -2.8713    -0.0121 C.2     
  26 N26           -0.1114    -4.1218     0.0060 N.3     
  27 C27           -1.5061    -4.6002     0.0159 C.3     
  28 C28           -1.6858    -5.5111    -1.2167 C.3     
  29 C29           -0.2340    -5.9523    -1.5399 C.3     
  30 C30            0.5675    -4.6750    -1.1852 C.3     
  31 O31           -2.4978    -6.6421    -0.8950 O.3     
  32 H32            2.1594    -0.1665    -0.0055 H       
  33 H33           -2.1349    -0.1988     0.0374 H       
  34 H34           -2.0262     1.6363    -0.0560 H       
  35 H35           -2.9202     3.7589    -1.1448 H       
  36 H36           -2.9562     6.2113    -0.9441 H       
  37 H37            0.4485     6.0525     1.6336 H       
  38 H38            0.4800     3.5992     1.4428 H       
  39 H39            2.0680    -4.4635     1.2857 H       
  40 H40            5.5094    -3.6228    -0.8684 H       
  41 H41            3.7026    -1.7398    -1.3902 H       
  42 H42           -1.6971    -5.1672     0.9270 H       
  43 H43           -2.1891    -3.7530    -0.0463 H       
  44 H44           -2.1133    -4.9527    -2.0495 H       
  45 H45            0.0685    -6.7901    -0.9116 H       
  46 H46           -0.1270    -6.1997    -2.5960 H       
  47 H47            0.5294    -3.9621    -2.0089 H       
  48 H48            1.6010    -4.9287    -0.9494 H       
  49 H49           -2.6416    -7.2465    -1.6360 H       
@<TRIPOS>BOND
   1    1    2 1
   2    1    8 2
   3    1    9 am
   4    2    3 ar
   5    2    7 ar
   6    3    4 ar
   7    3   32 1
   8    4    5 ar
   9    4   25 1
  10    5    6 ar
  11    5   26 1
  12    6    7 ar
  13    7   33 1
  14    9   10 1
  15    9   34 1
  16   10   11 ar
  17   10   15 ar
  18   11   12 ar
  19   11   35 1
  20   12   13 ar
  21   12   36 1
  22   13   14 ar
  23   13   16 1
  24   14   15 ar
  25   14   37 1
  26   15   38 1
  27   16   17 1
  28   17   18 1
  29   17   19 1
  30   17   20 1
  31   21   22 1
  32   21   25 1
  33   21   39 1
  34   22   23 2
  35   23   24 1
  36   23   40 1
  37   24   25 2
  38   24   41 1
  39   26   27 1
  40   26   30 1
  41   27   28 1
  42   27   42 1
  43   27   43 1
  44   28   29 1
  45   28   31 1
  46   28   44 1
  47   29   30 1
  48   29   45 1
  49   29   46 1
  50   30   47 1
  51   30   48 1
  52   31   49 1

#	End of record

