#	Name: ASD01140224
#	Creating user name:	WinNT
#	Creation time:	15. 06. 2019 19:00

#	Modifying user name:	WinNT
#	Modification time:	15. 06. 2019 19:00

#	Program:	/corina/corina34_cracker 3.40 0067  02.08.2006

@<TRIPOS>MOLECULE
ASD01140224
  60   63    0    0    0
SMALL
NO_CHARGES


@<TRIPOS>ATOM
   1 C1            -0.3470     1.6813     0.2013 C.3     
   2 C2            -0.4254     0.1549     0.2672 C.3     
   3 C3             0.2874    -0.4449    -0.9465 C.3     
   4 C4             1.7542    -0.0095    -0.9425 C.3     
   5 C5             1.8325     1.5167    -1.0090 C.3     
   6 C6             1.1193     2.1190     0.2036 C.3     
   7 C7             1.1944     3.6446     0.1302 C.3     
   8 C8             3.2984     1.9543    -1.0088 C.3     
   9 C9             3.3763     3.4808    -1.0772 C.3     
  10 C10            2.6676     4.0816     0.1375 C.3     
  11 C11            0.5503     5.7954     1.2961 C.3     
  12 C12            0.4221     4.2626     1.2907 C.3     
  13 C13            2.0287     6.1241     1.3667 C.3     
  14 C14            2.3977     7.6041     1.3710 C.3     
  15 C15            2.6859     5.5969     0.0624 C.3     
  16 C16            4.0690     6.2541     0.1241 C.3     
  17 C17            3.7481     7.6917     0.6172 C.3     
  18 C18            1.7954     1.6331     1.4872 C.3     
  19 H19            1.3515     1.8652    -1.9229 H       
  20 C20            2.6553     5.4311     2.5784 C.3     
  21 C21            2.5564     8.0986     2.7857 C.2     
  22 O22           -0.3425     0.0144    -2.1441 O.3     
  23 H23            2.1295     5.9397    -0.8100 H       
  24 C24            1.3556     8.5933     3.5502 C.3     
  25 O25            3.6458     8.0984     3.3068 O.2     
  26 C26            0.2083    -1.9715    -0.8816 C.3     
  27 H27            0.7456     3.9744    -0.8068 H       
  28 H28            3.1448     3.7528     1.0607 H       
  29 H29           -0.8289     2.0306    -0.7119 H       
  30 H30           -0.8549     2.1086     1.0659 H       
  31 H31            0.0558    -0.1946     1.1806 H       
  32 H32           -1.4702    -0.1557     0.2651 H       
  33 H33            2.2344    -0.3586    -0.0283 H       
  34 H34            2.2627    -0.4375    -1.8064 H       
  35 H35            3.7811     1.6065    -0.0955 H       
  36 H36            3.8054     1.5256    -1.8733 H       
  37 H37            4.4210     3.7917    -1.0790 H       
  38 H38            2.8920     3.8289    -1.9895 H       
  39 H39            0.1223     6.2065     0.3818 H       
  40 H40            0.0368     6.2074     2.1648 H       
  41 H41           -0.6303     3.9929     1.2026 H       
  42 H42            0.8128     3.8688     2.2290 H       
  43 H43            1.6362     8.1847     0.8504 H       
  44 H44            4.7107     5.7361     0.8368 H       
  45 H45            4.5288     6.2787    -0.8638 H       
  46 H46            3.6586     8.3676    -0.2333 H       
  47 H47            4.5310     8.0394     1.2912 H       
  48 H48            2.8398     1.9452     1.4884 H       
  49 H49            1.2870     2.0624     2.3506 H       
  50 H50            1.7411     0.5457     1.5373 H       
  51 H51            2.4745     4.3580     2.5169 H       
  52 H52            3.7290     5.6187     2.5892 H       
  53 H53            2.2087     5.8230     3.4922 H       
  54 H54           -1.2766    -0.2259    -2.2143 H       
  55 H55            0.4683     8.5179     2.9215 H       
  56 H56            1.2193     7.9862     4.4452 H       
  57 H57            1.5106     9.6334     3.8368 H       
  58 H58           -0.8367    -2.2815    -0.8842 H       
  59 H59            0.7162    -2.3987    -1.7463 H       
  60 H60            0.6890    -2.3217     0.0318 H       
@<TRIPOS>BOND
   1    1    2 1
   2    1    6 1
   3    1   29 1
   4    1   30 1
   5    2    3 1
   6    2   31 1
   7    2   32 1
   8    3    4 1
   9    3   22 1
  10    3   26 1
  11    4    5 1
  12    4   33 1
  13    4   34 1
  14    5    6 1
  15    5    8 1
  16    5   19 1
  17    6    7 1
  18    6   18 1
  19    7   12 1
  20    7   10 1
  21    7   27 1
  22    8    9 1
  23    8   35 1
  24    8   36 1
  25    9   10 1
  26    9   37 1
  27    9   38 1
  28   10   15 1
  29   10   28 1
  30   11   12 1
  31   11   13 1
  32   11   39 1
  33   11   40 1
  34   12   41 1
  35   12   42 1
  36   13   15 1
  37   13   20 1
  38   13   14 1
  39   14   17 1
  40   14   21 1
  41   14   43 1
  42   15   16 1
  43   15   23 1
  44   16   17 1
  45   16   44 1
  46   16   45 1
  47   17   46 1
  48   17   47 1
  49   18   48 1
  50   18   49 1
  51   18   50 1
  52   20   51 1
  53   20   52 1
  54   20   53 1
  55   21   24 1
  56   21   25 2
  57   22   54 1
  58   24   55 1
  59   24   56 1
  60   24   57 1
  61   26   58 1
  62   26   59 1
  63   26   60 1

#	End of record

