#	Name: ASD09990001
#	Creating user name:	WinNT
#	Creation time:	15. 06. 2019 21:24

#	Modifying user name:	WinNT
#	Modification time:	15. 06. 2019 21:24

#	Program:	/corina/corina34_cracker 3.40 0067  02.08.2006

@<TRIPOS>MOLECULE
ASD09990001
  74   78    0    0    0
SMALL
NO_CHARGES


@<TRIPOS>ATOM
   1 C1            -0.4523     0.2126     3.0094 C.ar    
   2 N2             0.4032     0.4419     2.0324 N.ar    
   3 C3             0.1826     1.3690     1.1209 C.ar    
   4 C4            -0.9641     2.1395     1.1594 C.ar    
   5 C5            -1.8871     1.9272     2.1720 C.ar    
   6 C6            -1.6235     0.9395     3.1087 C.ar    
   7 C7            -0.1523    -0.8589     4.0258 C.3     
   8 C8             0.1037    -2.1855     3.3079 C.3     
   9 C9             1.1927     1.5911     0.0249 C.3     
  10 C10            2.5656     1.8616     0.6437 C.3     
  11 C11           -3.1495     2.7466     2.2493 C.3     
  12 C12           -4.2567     2.0540     1.4523 C.3     
  13 C13           -5.5605     2.8408     1.6008 C.3     
  14 C14           -5.9813     2.8644     3.0716 C.3     
  15 C15           -7.3054     3.6478     3.2512 C.3     
  16 C16           -6.3566     1.4426     3.5582 C.3     
  17 C17           -7.2966     1.6886     4.7564 C.3     
  18 C18           -7.8998     3.0907     4.5612 C.3     
  19 C19           -6.6593     2.1787     0.7619 C.3     
  20 O20           -5.3690     4.1813     1.1339 O.3     
  21 C21           -5.0873     4.3221    -0.1797 C.2     
  22 C22           -5.5597     3.3677    -1.1115 C.2     
  23 C23           -6.3138     2.3231    -0.6994 C.2     
  24 O24           -6.7544     1.4153    -1.5931 O.3     
  25 O25           -4.4274     5.2701    -0.5619 O.2     
  26 C26           -5.2202     3.5159    -2.5722 C.3     
  27 C27           -6.2226     4.4283    -3.2309 C.2     
  28 N28           -6.1070     5.7311    -3.3318 N.2     
  29 N29           -7.3534     4.0359    -3.8019 N.2     
  30 C30           -8.0021     5.0898    -4.2842 C.2     
  31 N31           -7.2443     6.1927    -4.0071 N.pl3   
  32 C32           -7.6667     7.4280    -4.3876 C.2     
  33 N33           -9.1645     5.2158    -4.9352 N.2     
  34 C34           -9.5993     6.3954    -5.3157 C.2     
  35 C35           -8.8489     7.5464    -5.0449 C.2     
  36 C36           -6.8351     8.6475    -4.0841 C.3     
  37 C37          -10.9117     6.5107    -6.0475 C.3     
  38 H38           -1.1388     2.8977     0.4104 H       
  39 H39           -2.3205     0.7466     3.9108 H       
  40 H40            0.7319    -0.5791     4.5985 H       
  41 H41           -1.0020    -0.9685     4.6997 H       
  42 H42            0.3207    -2.9605     4.0431 H       
  43 H43           -0.7805    -2.4653     2.7352 H       
  44 H44            0.9534    -2.0759     2.6340 H       
  45 H45            1.2467     0.7030    -0.6049 H       
  46 H46            0.8913     2.4470    -0.5790 H       
  47 H47            2.8670     1.0057     1.2476 H       
  48 H48            3.2962     2.0223    -0.1491 H       
  49 H49            2.5116     2.7497     1.2734 H       
  50 H50           -3.4571     2.8427     3.2906 H       
  51 H51           -2.9662     3.7367     1.8318 H       
  52 H52           -3.9753     2.0124     0.4001 H       
  53 H53           -4.3981     1.0417     1.8309 H       
  54 H54           -5.1925     3.2919     3.6907 H       
  55 H55           -7.1072     4.7154     3.3459 H       
  56 H56           -7.9782     3.4564     2.4153 H       
  57 H57           -6.8762     0.8951     2.7718 H       
  58 H58           -5.4660     0.9010     3.8769 H       
  59 H59           -8.0886     0.9399     4.7695 H       
  60 H60           -6.7317     1.6516     5.6878 H       
  61 H61           -7.6277     3.7340     5.3980 H       
  62 H62           -8.9846     3.0224     4.4796 H       
  63 H63           -6.7270     1.1214     1.0181 H       
  64 H64           -7.6138     2.6659     0.9610 H       
  65 H65           -7.6290     1.0337    -1.4363 H       
  66 H66           -4.2215     3.9411    -2.6718 H       
  67 H67           -5.2483     2.5380    -3.0528 H       
  68 H68           -9.2056     8.5169    -5.3567 H       
  69 H69           -6.1463     8.8320    -4.9084 H       
  70 H70           -7.4887     9.5105    -3.9567 H       
  71 H71           -6.2689     8.4822    -3.1675 H       
  72 H72          -11.3493     5.5196    -6.1670 H       
  73 H73          -11.5921     7.1419    -5.4759 H       
  74 H74          -10.7428     6.9540    -7.0288 H       
@<TRIPOS>BOND
   1    1    2 ar
   2    1    7 1
   3    1    6 ar
   4    2    3 ar
   5    3    4 ar
   6    3    9 1
   7    4    5 ar
   8    4   38 1
   9    5    6 ar
  10    5   11 1
  11    6   39 1
  12    7    8 1
  13    7   40 1
  14    7   41 1
  15    8   42 1
  16    8   43 1
  17    8   44 1
  18    9   10 1
  19    9   45 1
  20    9   46 1
  21   10   47 1
  22   10   48 1
  23   10   49 1
  24   11   12 1
  25   11   50 1
  26   11   51 1
  27   12   13 1
  28   12   52 1
  29   12   53 1
  30   13   14 1
  31   13   19 1
  32   13   20 1
  33   14   15 1
  34   14   16 1
  35   14   54 1
  36   15   18 1
  37   15   55 1
  38   15   56 1
  39   16   17 1
  40   16   57 1
  41   16   58 1
  42   17   18 1
  43   17   59 1
  44   17   60 1
  45   18   61 1
  46   18   62 1
  47   19   23 1
  48   19   63 1
  49   19   64 1
  50   20   21 1
  51   21   22 1
  52   21   25 2
  53   22   23 2
  54   22   26 1
  55   23   24 1
  56   24   65 1
  57   26   27 1
  58   26   66 1
  59   26   67 1
  60   27   28 2
  61   27   29 1
  62   28   31 1
  63   29   30 2
  64   30   31 1
  65   30   33 1
  66   31   32 1
  67   32   36 1
  68   32   35 2
  69   33   34 2
  70   34   35 1
  71   34   37 1
  72   35   68 1
  73   36   69 1
  74   36   70 1
  75   36   71 1
  76   37   72 1
  77   37   73 1
  78   37   74 1

#	End of record

