#	Name: ASD01320080
#	Creating user name:	WinNT
#	Creation time:	15. 06. 2019 19:15

#	Modifying user name:	WinNT
#	Modification time:	15. 06. 2019 19:15

#	Program:	/corina/corina34_cracker 3.40 0067  02.08.2006

@<TRIPOS>MOLECULE
ASD01320080
  48   51    0    0    0
SMALL
NO_CHARGES


@<TRIPOS>ATOM
   1 Cl1           -4.1651    -3.2892     3.2773 Cl      
   2 C2             0.8245     1.4142     0.6410 C.3     
   3 N3             0.7106    -0.0464     0.5323 N.3     
   4 O4            -1.4475    -4.5650     2.9608 O.3     
   5 C5            -2.0560    -5.3726     3.8437 C.2     
   6 C6            -2.0996    -6.7225     3.6900 C.2     
   7 O7             2.0704    -2.5556     0.4652 O.3     
   8 C8            -1.4849    -7.3167     2.5612 C.2     
   9 O9            -1.5049    -8.5249     2.3909 O.2     
  10 C10           -0.1878    -6.9198     0.4558 C.ar    
  11 O11           -0.1751    -8.2543     0.2094 O.3     
  12 C12            0.4238    -6.0438    -0.4216 C.ar    
  13 C13            0.4099    -4.6765    -0.1671 C.ar    
  14 O14            1.0135    -3.8251    -1.0352 O.3     
  15 C15           -0.2148    -4.1746     0.9640 C.ar    
  16 C16           -0.8342    -5.0373     1.8550 C.ar    
  17 C17           -0.8210    -6.4195     1.6007 C.ar    
  18 C18            1.1970    -0.7044     1.7516 C.3     
  19 C19            1.1997    -2.2212     1.5479 C.3     
  20 C20           -0.2215    -2.6904     1.2246 C.3     
  21 C21           -0.7226    -1.9544    -0.0211 C.3     
  22 C22           -0.6695    -0.4453     0.2281 C.3     
  23 C23           -2.7021    -4.7717     5.0272 C.ar    
  24 C24           -3.6916    -3.7976     4.8683 C.ar    
  25 C25           -4.2914    -3.2402     5.9806 C.ar    
  26 C26           -3.9146    -3.6442     7.2484 C.ar    
  27 C27           -2.9352    -4.6086     7.4125 C.ar    
  28 C28           -2.3317    -5.1782     6.3113 C.ar    
  29 H29            1.8690     1.6868     0.7924 H       
  30 H30            0.4575     1.8765    -0.2753 H       
  31 H31            0.2317     1.7629     1.4866 H       
  32 H32           -2.5993    -7.3374     4.4238 H       
  33 H33            2.9887    -2.2846     0.6008 H       
  34 H34            0.5844    -8.7171     0.5890 H       
  35 H35            0.9140    -6.4221    -1.3064 H       
  36 H36            0.4325    -3.5022    -1.7375 H       
  37 H37            2.2101    -0.3652     1.9678 H       
  38 H38            0.5435    -0.4513     2.5863 H       
  39 H39            1.5467    -2.7100     2.4582 H       
  40 H40           -0.8778    -2.4714     2.0668 H       
  41 H41           -0.0887    -2.2052    -0.8716 H       
  42 H42           -1.7496    -2.2526    -0.2315 H       
  43 H43           -1.3144    -0.1934     1.0700 H       
  44 H44           -1.0122     0.0820    -0.6622 H       
  45 H45           -5.0560    -2.4870     5.8600 H       
  46 H46           -4.3865    -3.2049     8.1148 H       
  47 H47           -2.6462    -4.9190     8.4057 H       
  48 H48           -1.5709    -5.9337     6.4413 H       
@<TRIPOS>BOND
   1    1   24 1
   2    2    3 1
   3    2   29 1
   4    2   30 1
   5    2   31 1
   6    3   18 1
   7    3   22 1
   8    4    5 1
   9    4   16 1
  10    5    6 2
  11    5   23 1
  12    6    8 1
  13    6   32 1
  14    7   19 1
  15    7   33 1
  16    8    9 2
  17    8   17 1
  18   10   11 1
  19   10   12 ar
  20   10   17 ar
  21   11   34 1
  22   12   13 ar
  23   12   35 1
  24   13   14 1
  25   13   15 ar
  26   14   36 1
  27   15   16 ar
  28   15   20 1
  29   16   17 ar
  30   18   19 1
  31   18   37 1
  32   18   38 1
  33   19   20 1
  34   19   39 1
  35   20   21 1
  36   20   40 1
  37   21   22 1
  38   21   41 1
  39   21   42 1
  40   22   43 1
  41   22   44 1
  42   23   24 ar
  43   23   28 ar
  44   24   25 ar
  45   25   26 ar
  46   25   45 1
  47   26   27 ar
  48   26   46 1
  49   27   28 ar
  50   27   47 1
  51   28   48 1

#	End of record

