#	Name: ASD03930089
#	Creating user name:	WinNT
#	Creation time:	15. 06. 2019 20:47

#	Modifying user name:	WinNT
#	Modification time:	15. 06. 2019 20:47

#	Program:	/corina/corina34_cracker 3.40 0067  02.08.2006

@<TRIPOS>MOLECULE
ASD03930089
  35   37    0    0    0
SMALL
NO_CHARGES


@<TRIPOS>ATOM
   1 C1             0.5100     1.4029    -1.0376 C.ar    
   2 C2             0.5286     0.0262    -1.0681 C.ar    
   3 C3             1.2180    -0.6870    -0.0942 C.ar    
   4 C4             1.8965    -0.0103     0.9163 C.ar    
   5 C5             1.8805     1.3720     0.9531 C.ar    
   6 C6             1.1862     2.0877    -0.0249 C.ar    
   7 C7             1.1673     3.5632     0.0111 C.2     
   8 O8             2.2084     4.1821     0.1180 O.2     
   9 N9            -0.0040     4.2245    -0.0746 N.am    
  10 C10           -1.2616     3.4951    -0.2871 C.3     
  11 C11           -2.4066     5.4195     0.8198 C.3     
  12 C12           -1.0537     6.0601     1.1433 C.3     
  13 C13           -0.0483     5.6878     0.0490 C.3     
  14 C14           -2.2555     3.8966     0.8072 C.3     
  15 O15            1.2163    -2.0459    -0.1399 O.3     
  16 C16            2.2217    -2.7176     0.6263 C.3     
  17 C17            2.2671    -2.0823     2.0225 C.3     
  18 O18            2.5829    -0.6939     1.8728 O.3     
  19 H19           -0.0233     1.9530    -1.7988 H       
  20 H20            0.0052    -0.5015    -1.8517 H       
  21 H21            2.4043     1.8978     1.7377 H       
  22 H22           -1.6713     3.7503    -1.2644 H       
  23 H23           -1.0751     2.4224    -0.2356 H       
  24 H24           -3.1331     5.7009     1.5820 H       
  25 H25           -2.7495     5.7677    -0.1546 H       
  26 H26           -1.1629     7.1441     1.1760 H       
  27 H27           -0.7026     5.6999     2.1103 H       
  28 H28            0.9396     6.0619     0.3179 H       
  29 H29           -0.3614     6.1253    -0.8990 H       
  30 H30           -3.2231     3.4367     0.6064 H       
  31 H31           -1.8860     3.5597     1.7757 H       
  32 H32            1.9730    -3.7754     0.7118 H       
  33 H33            3.1907    -2.6055     0.1399 H       
  34 H34            1.2962    -2.1884     2.5065 H       
  35 H35            3.0337    -2.5709     2.6240 H       
@<TRIPOS>BOND
   1    1    2 ar
   2    1    6 ar
   3    1   19 1
   4    2    3 ar
   5    2   20 1
   6    3    4 ar
   7    3   15 1
   8    4    5 ar
   9    4   18 1
  10    5    6 ar
  11    5   21 1
  12    6    7 1
  13    7    8 2
  14    7    9 am
  15    9   10 1
  16    9   13 1
  17   10   14 1
  18   10   22 1
  19   10   23 1
  20   11   12 1
  21   11   14 1
  22   11   24 1
  23   11   25 1
  24   12   13 1
  25   12   26 1
  26   12   27 1
  27   13   28 1
  28   13   29 1
  29   14   30 1
  30   14   31 1
  31   15   16 1
  32   16   17 1
  33   16   32 1
  34   16   33 1
  35   17   18 1
  36   17   34 1
  37   17   35 1

#	End of record

