#	Name: ASD01140752
#	Creating user name:	WinNT
#	Creation time:	15. 06. 2019 19:01

#	Modifying user name:	WinNT
#	Modification time:	15. 06. 2019 19:01

#	Program:	/corina/corina34_cracker 3.40 0067  02.08.2006

@<TRIPOS>MOLECULE
ASD01140752
  43   46    0    0    0
SMALL
NO_CHARGES


@<TRIPOS>ATOM
   1 Cl1           -4.6078     1.7593    -1.3322 Cl      
   2 O2             0.3396     1.4093     0.0582 O.3     
   3 O3             2.7270    -0.8805     2.0724 O.2     
   4 O4            -0.1860    -3.4411     2.7468 O.2     
   5 N5             0.9141    -0.8104     0.7619 N.am    
   6 N6            -1.4212    -1.7796     2.1446 N.am    
   7 C7             0.0021    -0.0041     0.0020 C.3     
   8 C8            -1.4602    -0.1182     0.3215 C.ar    
   9 C9             0.1490    -0.4203    -1.4389 C.ar    
  10 C10            0.7334    -2.2378     1.0022 C.3     
  11 C11           -2.0499    -0.9090     1.2741 C.ar    
  12 C12            2.0719    -0.2767     1.2428 C.2     
  13 C13           -0.3337    -2.4948     2.0026 C.2     
  14 C14           -2.2726     0.6995    -0.4743 C.ar    
  15 C15            1.6235     1.7867     0.1527 C.2     
  16 C16            2.5073     0.9846     0.7714 C.2     
  17 C17           -3.4490    -0.8715     1.4243 C.ar    
  18 C18           -0.3030    -1.6605    -1.8496 C.ar    
  19 C19            0.7305     0.4402    -2.3511 C.ar    
  20 C20           -2.0822    -1.9262     3.4438 C.3     
  21 C21           -3.6389     0.7307    -0.3238 C.ar    
  22 C22           -4.2351    -0.0656     0.6391 C.ar    
  23 C23            2.0723     3.1014    -0.4314 C.3     
  24 C24           -0.1682    -2.0423    -3.1713 C.ar    
  25 C25            0.8652     0.0584    -3.6728 C.ar    
  26 C26            0.4181    -1.1838    -4.0824 C.ar    
  27 H27            0.4666    -2.7252     0.0644 H       
  28 H28            1.6707    -2.6586     1.3660 H       
  29 H29           -1.8130     1.3231    -1.2268 H       
  30 H30            3.5320     1.2977     0.9067 H       
  31 H31           -3.9152    -1.4921     2.1752 H       
  32 H32           -0.7611    -2.3312    -1.1377 H       
  33 H33            1.0793     1.4110    -2.0312 H       
  34 H34           -2.8061    -2.7395     3.3934 H       
  35 H35           -1.3371    -2.1497     4.2073 H       
  36 H36           -2.5951    -0.9984     3.6972 H       
  37 H37           -5.3068    -0.0523     0.7715 H       
  38 H38            1.9777     3.8844     0.3209 H       
  39 H39            3.1131     3.0230    -0.7454 H       
  40 H40            1.4506     3.3476    -1.2922 H       
  41 H41           -0.5207    -3.0115    -3.4920 H       
  42 H42            1.3193     0.7309    -4.3856 H       
  43 H43            0.5237    -1.4823    -5.1150 H       
@<TRIPOS>BOND
   1    1   21 1
   2    2    7 1
   3    2   15 1
   4    3   12 2
   5    4   13 2
   6    5    7 1
   7    5   10 1
   8    5   12 am
   9    6   11 1
  10    6   13 am
  11    6   20 1
  12    7    8 1
  13    7    9 1
  14    8   11 ar
  15    8   14 ar
  16    9   18 ar
  17    9   19 ar
  18   10   13 1
  19   10   27 1
  20   10   28 1
  21   11   17 ar
  22   12   16 1
  23   14   21 ar
  24   14   29 1
  25   15   16 2
  26   15   23 1
  27   16   30 1
  28   17   22 ar
  29   17   31 1
  30   18   24 ar
  31   18   32 1
  32   19   25 ar
  33   19   33 1
  34   20   34 1
  35   20   35 1
  36   20   36 1
  37   21   22 ar
  38   22   37 1
  39   23   38 1
  40   23   39 1
  41   23   40 1
  42   24   26 ar
  43   24   41 1
  44   25   26 ar
  45   25   42 1
  46   26   43 1

#	End of record

