Acalabrutinib
                    3D
 Structure written by MMmdl.
 58 62  0  0  1  0            999 V2000
   -1.8818    6.0328   -0.6941 C   0  0  0  0  0  0
   -1.4406    4.6376   -0.8325 C   0  0  0  0  0  0
   -1.0686    3.4786   -0.9322 C   0  0  0  0  0  0
   -0.5761    2.1175   -1.0169 C   0  0  0  0  0  0
   -0.1876    1.6794   -2.0996 O   0  0  0  0  0  0
   -0.5667    1.3918    0.1277 N   0  0  0  0  0  0
   -1.0823    1.8131    1.4370 C   0  0  0  0  0  0
   -0.7662    0.6755    2.4086 C   0  0  0  0  0  0
   -0.6258   -0.5505    1.5178 C   0  0  0  0  0  0
   -0.1001    0.0012    0.1897 C   0  0  2  0  0  0
    1.4034   -0.0251    0.1110 C   0  0  0  0  0  0
    3.5574    0.4512    0.3896 C   0  0  0  0  0  0
    3.4782   -0.6677   -0.4120 C   0  0  0  0  0  0
    2.1234   -0.9565   -0.5902 N   0  0  0  0  0  0
    1.7450   -2.0506   -1.3790 C   0  0  0  0  0  0
    2.8422   -2.7733   -1.9218 C   0  0  0  0  0  0
    4.1590   -2.5193   -1.7476 N   0  0  0  0  0  0
    4.4945   -1.4659   -0.9870 C   0  0  0  0  0  0
    5.8565   -1.2438   -0.7959 N   0  0  0  0  0  0
    4.7349    1.1838    0.8500 C   0  0  0  0  0  0
    5.5976    1.8118   -0.0714 C   0  0  0  0  0  0
    6.7208    2.5304    0.3814 C   0  0  0  0  0  0
    6.9861    2.6477    1.7640 C   0  0  0  0  0  0
    6.1194    2.0147    2.6855 C   0  0  0  0  0  0
    4.9986    1.2936    2.2299 C   0  0  0  0  0  0
    8.1953    3.4058    2.2341 C   0  0  0  0  0  0
    9.2181    3.4312    1.5485 O   0  0  0  0  0  0
    8.0271    4.0759    3.3907 N   0  0  0  0  0  0
    8.9696    4.8734    4.0919 C   0  0  0  0  0  0
    8.4840    5.4679    5.2785 C   0  0  0  0  0  0
    9.3408    6.2786    6.0482 C   0  0  0  0  0  0
   10.6632    6.4734    5.6114 C   0  0  0  0  0  0
   11.0671    5.8445    4.4193 C   0  0  0  0  0  0
   10.2474    5.0673    3.6799 N   0  0  0  0  0  0
    2.2520    0.8246    0.7172 N   0  0  0  0  0  0
   -1.1657    6.6953   -1.1804 H   0  0  0  0  0  0
   -1.9511    6.2942    0.3618 H   0  0  0  0  0  0
   -2.8594    6.1593   -1.1593 H   0  0  0  0  0  0
   -0.6304    2.7470    1.7745 H   0  0  0  0  0  0
   -2.1609    1.9609    1.3664 H   0  0  0  0  0  0
    0.1833    0.8737    2.9076 H   0  0  0  0  0  0
   -1.5281    0.5539    3.1790 H   0  0  0  0  0  0
    0.0046   -1.3312    1.9456 H   0  0  0  0  0  0
   -1.6161   -0.9795    1.3592 H   0  0  0  0  0  0
   -0.5200   -0.5715   -0.6379 H   0  0  0  0  0  0
    0.7032   -2.2885   -1.5316 H   0  0  0  0  0  0
    2.6333   -3.6316   -2.5426 H   0  0  0  0  0  0
    6.1940   -0.4853   -0.2214 H   0  0  0  0  0  0
    6.5497   -1.8507   -1.2094 H   0  0  0  0  0  0
    5.3997    1.7404   -1.1309 H   0  0  0  0  0  0
    7.3721    2.9989   -0.3424 H   0  0  0  0  0  0
    6.3047    2.0725    3.7483 H   0  0  0  0  0  0
    4.3405    0.8199    2.9437 H   0  0  0  0  0  0
    7.1177    3.9968    3.8215 H   0  0  0  0  0  0
    7.4649    5.3079    5.5996 H   0  0  0  0  0  0
    8.9885    6.7426    6.9575 H   0  0  0  0  0  0
   11.3494    7.0886    6.1745 H   0  0  0  0  0  0
   12.0741    5.9681    4.0491 H   0  0  0  0  0  0
  1  2  1  0  0  0
  1 36  1  0  0  0
  1 37  1  0  0  0
  1 38  1  0  0  0
  2  3  3  0  0  0
  3  4  1  0  0  0
  4  5  2  0  0  0
  4  6  1  0  0  0
  6  7  1  0  0  0
  6 10  1  0  0  0
  7  8  1  0  0  0
  7 39  1  0  0  0
  7 40  1  0  0  0
  8  9  1  0  0  0
  8 41  1  0  0  0
  8 42  1  0  0  0
  9 10  1  0  0  0
  9 43  1  0  0  0
  9 44  1  0  0  0
 10 11  1  0  0  0
 10 45  1  0  0  0
 11 14  1  0  0  0
 11 35  2  0  0  0
 12 13  2  0  0  0
 12 20  1  0  0  0
 12 35  1  0  0  0
 13 14  1  0  0  0
 13 18  1  0  0  0
 14 15  1  0  0  0
 15 16  2  0  0  0
 15 46  1  0  0  0
 16 17  1  0  0  0
 16 47  1  0  0  0
 17 18  2  0  0  0
 18 19  1  0  0  0
 19 48  1  0  0  0
 19 49  1  0  0  0
 20 21  1  0  0  0
 20 25  2  0  0  0
 21 22  2  0  0  0
 21 50  1  0  0  0
 22 23  1  0  0  0
 22 51  1  0  0  0
 23 24  2  0  0  0
 23 26  1  0  0  0
 24 25  1  0  0  0
 24 52  1  0  0  0
 25 53  1  0  0  0
 26 27  2  0  0  0
 26 28  1  0  0  0
 28 29  1  0  0  0
 28 54  1  0  0  0
 29 30  1  0  0  0
 29 34  2  0  0  0
 30 31  2  0  0  0
 30 55  1  0  0  0
 31 32  1  0  0  0
 31 56  1  0  0  0
 32 33  2  0  0  0
 32 57  1  0  0  0
 33 34  1  0  0  0
 33 58  1  0  0  0
M  END
> <s_m_entry_id>
1

> <s_m_entry_name>
Acalabrutinib.1

> <i_f3d_flags>
0

> <r_epik_Ionization_Penalty>
  0.0195

> <r_epik_State_Penalty>
  0.0141

> <i_epik_Tot_Q>
0

> <s_pdb_PDB_TITLE>
Acalabrutinib

> <s_m_Source_Path>
/media/4tb_disk1/SijieChen/TKI/pharmacophore_hypothesis-2/ligprep57_mae/inactive

> <s_m_Source_File>
Acalabrutinib.mae

> <i_m_Source_File_Index>
1

$$$$
Alectinib
                    3D
 Structure written by MMmdl.
 71 76  0  0  1  0            999 V2000
   -0.5909    1.0424    0.1105 C   0  0  0  0  0  0
    0.1037   -0.3227    0.0411 C   0  0  0  0  0  0
    1.6223   -0.2035    0.0470 C   0  0  0  0  0  0
    2.3129   -0.2456   -1.1799 C   0  0  0  0  0  0
    3.7217   -0.1384   -1.2388 C   0  0  0  0  0  0
    4.4609    0.0133   -0.0290 C   0  0  0  0  0  0
    3.7560    0.0574    1.1966 C   0  0  0  0  0  0
    2.3492   -0.0427    1.2489 C   0  0  0  0  0  0
    1.6792    0.0106    2.4814 N   0  0  0  0  0  0
    1.7654   -1.2324    3.2404 C   0  0  0  0  0  0
    0.7846   -1.2099    4.4253 C   0  0  0  0  0  0
    1.0073    0.0413    5.3019 C   0  0  0  0  0  0
    0.9309    1.3163    4.4290 C   0  0  0  0  0  0
    1.9181    1.2261    3.2541 C   0  0  0  0  0  0
    0.6026    0.8974    7.6042 C   0  0  0  0  0  0
   -0.2935    0.7240    8.8426 C   0  0  0  0  0  0
   -1.6393    1.0427    8.5099 O   0  0  0  0  0  0
   -2.1561    0.1890    7.4962 C   0  0  0  0  0  0
   -1.3260    0.3555    6.2125 C   0  0  0  0  0  0
    5.9984    0.1294   -0.0066 C   0  0  0  0  0  0
    6.5345    0.0770   -1.4065 C   0  0  0  0  0  0
    5.8280   -0.0658   -2.5693 C   0  0  0  0  0  0
    6.7845   -0.0608   -3.6464 C   0  0  0  0  0  0
    6.7081   -0.1678   -5.0563 C   0  0  0  0  0  0
    7.8671   -0.1254   -5.8577 C   0  0  0  0  0  0
    9.1374    0.0267   -5.2659 C   0  0  0  0  0  0
    9.2461    0.1357   -3.8660 C   0  0  0  0  0  0
    8.0828    0.0912   -3.0766 C   0  0  0  0  0  0
    7.8837    0.1698   -1.7131 N   0  0  0  0  0  0
   10.3298    0.0709   -6.0956 C   0  0  0  0  0  0
   11.2793    0.1062   -6.7558 N   0  0  0  0  0  0
    4.3818   -0.1899   -2.5811 C   0  0  0  0  0  0
    3.7364   -0.3266   -3.6206 O   0  0  0  0  0  0
    6.5910   -1.0396    0.8092 C   0  0  0  0  0  0
    6.4071    1.4684    0.6452 C   0  0  0  0  0  0
    0.1032    0.0573    6.4883 N   0  3  0  0  0  0
   -1.6747    0.9272    0.0942 H   0  0  0  0  0  0
   -0.3094    1.6693   -0.7360 H   0  0  0  0  0  0
   -0.3283    1.5757    1.0245 H   0  0  0  0  0  0
   -0.2221   -0.9507    0.8706 H   0  0  0  0  0  0
   -0.2128   -0.8435   -0.8633 H   0  0  0  0  0  0
    1.7395   -0.3607   -2.0888 H   0  0  0  0  0  0
    4.3038    0.1664    2.1204 H   0  0  0  0  0  0
    1.5426   -2.0802    2.5910 H   0  0  0  0  0  0
    2.7864   -1.3657    3.6011 H   0  0  0  0  0  0
   -0.2326   -1.2288    4.0344 H   0  0  0  0  0  0
    0.9067   -2.1158    5.0200 H   0  0  0  0  0  0
    2.0264   -0.0349    5.6852 H   0  0  0  0  0  0
   -0.0733    1.4463    4.0246 H   0  0  0  0  0  0
    1.1504    2.2054    5.0199 H   0  0  0  0  0  0
    2.9410    1.2287    3.6324 H   0  0  0  0  0  0
    1.8112    2.1001    2.6099 H   0  0  0  0  0  0
    0.6191    1.9457    7.3035 H   0  0  0  0  0  0
    1.6268    0.6188    7.8547 H   0  0  0  0  0  0
   -0.2340   -0.2955    9.2270 H   0  0  0  0  0  0
    0.0384    1.3856    9.6429 H   0  0  0  0  0  0
   -2.1480   -0.8481    7.8359 H   0  0  0  0  0  0
   -3.1966    0.4547    7.3081 H   0  0  0  0  0  0
   -1.7172   -0.3068    5.4412 H   0  0  0  0  0  0
   -1.4360    1.3774    5.8483 H   0  0  0  0  0  0
    5.7438   -0.2842   -5.5285 H   0  0  0  0  0  0
    7.7731   -0.2105   -6.9310 H   0  0  0  0  0  0
   10.2121    0.2526   -3.3961 H   0  0  0  0  0  0
    8.6016    0.2809   -1.0117 H   0  0  0  0  0  0
    6.3145   -2.0010    0.3748 H   0  0  0  0  0  0
    6.2483   -1.0365    1.8439 H   0  0  0  0  0  0
    7.6802   -0.9952    0.8371 H   0  0  0  0  0  0
    5.9952    2.3151    0.0946 H   0  0  0  0  0  0
    7.4908    1.5886    0.6657 H   0  0  0  0  0  0
    6.0626    1.5489    1.6761 H   0  0  0  0  0  0
    0.1227   -0.8882    6.8431 H   0  0  0  0  0  0
  1  2  1  0  0  0
  1 37  1  0  0  0
  1 38  1  0  0  0
  1 39  1  0  0  0
  2  3  1  0  0  0
  2 40  1  0  0  0
  2 41  1  0  0  0
  3  4  1  0  0  0
  3  8  2  0  0  0
  4  5  2  0  0  0
  4 42  1  0  0  0
  5  6  1  0  0  0
  5 32  1  0  0  0
  6  7  2  0  0  0
  6 20  1  0  0  0
  7  8  1  0  0  0
  7 43  1  0  0  0
  8  9  1  0  0  0
  9 10  1  0  0  0
  9 14  1  0  0  0
 10 11  1  0  0  0
 10 44  1  0  0  0
 10 45  1  0  0  0
 11 12  1  0  0  0
 11 46  1  0  0  0
 11 47  1  0  0  0
 12 13  1  0  0  0
 12 48  1  0  0  0
 12 36  1  0  0  0
 13 14  1  0  0  0
 13 49  1  0  0  0
 13 50  1  0  0  0
 14 51  1  0  0  0
 14 52  1  0  0  0
 15 16  1  0  0  0
 15 53  1  0  0  0
 15 54  1  0  0  0
 15 36  1  0  0  0
 16 17  1  0  0  0
 16 55  1  0  0  0
 16 56  1  0  0  0
 17 18  1  0  0  0
 18 19  1  0  0  0
 18 57  1  0  0  0
 18 58  1  0  0  0
 19 59  1  0  0  0
 19 60  1  0  0  0
 19 36  1  0  0  0
 20 21  1  0  0  0
 20 34  1  0  0  0
 20 35  1  0  0  0
 21 22  2  0  0  0
 21 29  1  0  0  0
 22 23  1  0  0  0
 22 32  1  0  0  0
 23 24  1  0  0  0
 23 28  2  0  0  0
 24 25  2  0  0  0
 24 61  1  0  0  0
 25 26  1  0  0  0
 25 62  1  0  0  0
 26 27  2  0  0  0
 26 30  1  0  0  0
 27 28  1  0  0  0
 27 63  1  0  0  0
 28 29  1  0  0  0
 29 64  1  0  0  0
 30 31  3  0  0  0
 32 33  2  0  0  0
 34 65  1  0  0  0
 34 66  1  0  0  0
 34 67  1  0  0  0
 35 68  1  0  0  0
 35 69  1  0  0  0
 35 70  1  0  0  0
 36 71  1  0  0  0
M  CHG  1  36   1
M  END
> <s_m_entry_id>
2

> <s_m_entry_name>
Alectinib.1

> <i_f3d_flags>
0

> <r_epik_Ionization_Penalty>
  0.1628

> <r_epik_State_Penalty>
  0.1521

> <i_epik_Tot_Q>
1

> <s_pdb_PDB_TITLE>
Alectinib

> <s_m_Source_Path>
/media/4tb_disk1/SijieChen/TKI/pharmacophore_hypothesis-2/ligprep57_mae/inactive

> <s_m_Source_File>
Alectinib.mae

> <i_m_Source_File_Index>
1

$$$$
Binimetinib
                    3D
 Structure written by MMmdl.
 42 44  0  0  1  0            999 V2000
   -2.8473    3.7895   -0.2180 C   0  0  0  0  0  0
   -3.0892    2.3770   -0.0110 N   0  0  0  0  0  0
   -4.2612    1.7855    0.2884 C   0  0  0  0  0  0
   -4.2540    0.4637    0.4326 N   0  0  0  0  0  0
   -2.9216    0.1631    0.2010 C   0  0  0  0  0  0
   -2.1695    1.3378   -0.0831 C   0  0  0  0  0  0
   -0.7952    1.2806   -0.3636 C   0  0  0  0  0  0
   -0.1229    0.0367   -0.3565 C   0  0  0  0  0  0
   -0.8528   -1.1518   -0.0564 C   0  0  0  0  0  0
   -2.2468   -1.0772    0.2019 C   0  0  0  0  0  0
   -2.9612   -2.2042    0.4418 F   0  0  0  0  0  0
   -0.2082   -2.4012   -0.0371 N   0  0  0  0  0  0
   -0.3566   -3.4444    0.8891 C   0  0  0  0  0  0
   -0.0518   -4.7540    0.4626 C   0  0  0  0  0  0
   -0.1718   -5.8419    1.3482 C   0  0  0  0  0  0
   -0.5882   -5.6258    2.6748 C   0  0  0  0  0  0
   -0.8753   -4.3206    3.1159 C   0  0  0  0  0  0
   -0.7545   -3.2299    2.2327 C   0  0  0  0  0  0
   -0.9996   -1.9815    2.6993 F   0  0  0  0  0  0
   -0.7513   -7.0946    3.8735 Br  0  0  0  0  0  0
    1.3472    0.0108   -0.6872 C   0  0  0  0  0  0
    1.8208   -0.8283   -1.4542 O   0  0  0  0  0  0
    2.0847    0.9474   -0.0726 N   0  0  0  0  0  0
    3.4778    0.8709   -0.1824 O   0  0  0  0  0  0
    3.9725    1.8920   -1.0380 C   0  0  0  0  0  0
    3.8788    3.2784   -0.3794 C   0  0  0  0  0  0
    4.4704    4.2464   -1.2182 O   0  0  0  0  0  0
   -1.9456    4.0917    0.3155 H   0  0  0  0  0  0
   -3.6892    4.3756    0.1519 H   0  0  0  0  0  0
   -2.7155    3.9859   -1.2820 H   0  0  0  0  0  0
   -5.1709    2.3561    0.4062 H   0  0  0  0  0  0
   -0.2662    2.1945   -0.5923 H   0  0  0  0  0  0
    0.5294   -2.5237   -0.7168 H   0  0  0  0  0  0
    0.2682   -4.9314   -0.5539 H   0  0  0  0  0  0
    0.0564   -6.8414    1.0089 H   0  0  0  0  0  0
   -1.1812   -4.1522    4.1378 H   0  0  0  0  0  0
    1.8093    1.5906    0.6554 H   0  0  0  0  0  0
    5.0175    1.6624   -1.2487 H   0  0  0  0  0  0
    3.4521    1.8753   -1.9976 H   0  0  0  0  0  0
    2.8420    3.5597   -0.1950 H   0  0  0  0  0  0
    4.3950    3.2793    0.5810 H   0  0  0  0  0  0
    4.4221    5.0870   -0.7889 H   0  0  0  0  0  0
  1  2  1  0  0  0
  1 28  1  0  0  0
  1 29  1  0  0  0
  1 30  1  0  0  0
  2  3  1  0  0  0
  2  6  1  0  0  0
  3  4  2  0  0  0
  3 31  1  0  0  0
  4  5  1  0  0  0
  5  6  1  0  0  0
  5 10  2  0  0  0
  6  7  2  0  0  0
  7  8  1  0  0  0
  7 32  1  0  0  0
  8  9  2  0  0  0
  8 21  1  0  0  0
  9 10  1  0  0  0
  9 12  1  0  0  0
 10 11  1  0  0  0
 12 13  1  0  0  0
 12 33  1  0  0  0
 13 14  1  0  0  0
 13 18  2  0  0  0
 14 15  2  0  0  0
 14 34  1  0  0  0
 15 16  1  0  0  0
 15 35  1  0  0  0
 16 17  2  0  0  0
 16 20  1  0  0  0
 17 18  1  0  0  0
 17 36  1  0  0  0
 18 19  1  0  0  0
 21 22  2  0  0  0
 21 23  1  0  0  0
 23 24  1  0  0  0
 23 37  1  0  0  0
 24 25  1  0  0  0
 25 26  1  0  0  0
 25 38  1  0  0  0
 25 39  1  0  0  0
 26 27  1  0  0  0
 26 40  1  0  0  0
 26 41  1  0  0  0
 27 42  1  0  0  0
M  END
> <s_m_entry_id>
3

> <s_m_entry_name>
Binimetinib.1

> <i_f3d_flags>
0

> <r_epik_Ionization_Penalty>
  0.0113

> <r_epik_State_Penalty>
  0.0087

> <i_epik_Tot_Q>
0

> <s_pdb_PDB_TITLE>
Binimetinib

> <s_m_Source_Path>
/media/4tb_disk1/SijieChen/TKI/pharmacophore_hypothesis-2/ligprep57_mae/inactive

> <s_m_Source_File>
Binimetinib.mae

> <i_m_Source_File_Index>
1

$$$$
Fostamatinib
                    3D
 Structure written by MMmdl.
 64 67  0  0  1  0            999 V2000
   -8.1751    2.8635    5.4085 C   0  0  0  0  0  0
   -6.7854    2.7548    4.7517 C   0  0  0  0  0  0
   -6.2284    1.3143    4.8694 C   0  0  0  0  0  0
   -6.4651    0.6613    5.8885 O   0  0  0  0  0  0
   -5.4714    0.8424    3.8503 N   0  0  0  0  0  0
   -5.2053    1.6449    2.6983 C   0  0  0  0  0  0
   -6.0069    2.7939    2.4914 C   0  0  0  0  0  0
   -5.8099    3.5737    1.3353 C   0  0  0  0  0  0
   -4.7954    3.2105    0.4309 C   0  0  0  0  0  0
   -4.0258    2.0650    0.7125 C   0  0  0  0  0  0
   -4.2344    1.3151    1.8153 N   0  0  0  0  0  0
   -2.9854    1.7086   -0.1576 N   0  0  0  0  0  0
   -2.1195    0.6110   -0.0433 C   0  0  0  0  0  0
   -2.5662   -0.7127    0.1872 C   0  0  0  0  0  0
   -1.5710   -1.7052    0.2885 C   0  0  0  0  0  0
   -0.2601   -1.4162    0.1320 N   0  0  0  0  0  0
    0.0509   -0.1430   -0.1188 C   0  0  0  0  0  0
   -0.8080    0.8767   -0.2297 N   0  0  0  0  0  0
    1.4010    0.1226   -0.2583 N   0  0  0  0  0  0
    2.1227    1.3074   -0.4520 C   0  0  0  0  0  0
    1.7088    2.2731   -1.3928 C   0  0  0  0  0  0
    2.4511    3.4642   -1.5785 C   0  0  0  0  0  0
    3.6223    3.6651   -0.8147 C   0  0  0  0  0  0
    4.0537    2.7056    0.1281 C   0  0  0  0  0  0
    3.2959    1.5208    0.2963 C   0  0  0  0  0  0
    5.2039    2.9886    0.8354 O   0  0  0  0  0  0
    5.6503    2.0439    1.7968 C   0  0  0  0  0  0
    4.3437    4.8190   -0.9772 O   0  0  0  0  0  0
    5.3293    4.7235   -1.9923 C   0  0  0  0  0  0
    2.1003    4.4557   -2.4718 O   0  0  0  0  0  0
    0.9238    4.2769   -3.2464 C   0  0  0  0  0  0
   -3.8796   -1.0316    0.2860 F   0  0  0  0  0  0
   -6.9863    3.1404    3.3875 O   0  0  0  0  0  0
   -4.8065   -0.4630    3.9874 C   0  0  0  0  0  0
   -3.7290   -0.3868    4.9104 O   0  0  0  0  0  0
   -2.3932   -1.2586    4.5247 P   0  0  0  0  0  0
   -2.8760   -2.6454    4.1444 O   0  0  0  0  0  0
   -5.8064    3.7467    5.4102 C   0  0  0  0  0  0
   -1.5385   -1.2596    5.7761 O   0  5  0  0  0  0
   -1.7388   -0.5237    3.3714 O   0  5  0  0  0  0
   -8.1337    2.6642    6.4801 H   0  0  0  0  0  0
   -8.8797    2.1590    4.9650 H   0  0  0  0  0  0
   -8.5905    3.8636    5.2813 H   0  0  0  0  0  0
   -6.4187    4.4470    1.1534 H   0  0  0  0  0  0
   -4.6132    3.8020   -0.4543 H   0  0  0  0  0  0
   -2.6410    2.4699   -0.7225 H   0  0  0  0  0  0
   -1.8283   -2.7377    0.4725 H   0  0  0  0  0  0
    1.9774   -0.6574    0.0223 H   0  0  0  0  0  0
    0.8167    2.0807   -1.9683 H   0  0  0  0  0  0
    3.5921    0.7630    1.0059 H   0  0  0  0  0  0
    6.5609    2.4137    2.2676 H   0  0  0  0  0  0
    5.8850    1.0845    1.3339 H   0  0  0  0  0  0
    4.9093    1.8952    2.5834 H   0  0  0  0  0  0
    5.8579    5.6727   -2.0786 H   0  0  0  0  0  0
    4.8825    4.4990   -2.9618 H   0  0  0  0  0  0
    6.0626    3.9506   -1.7582 H   0  0  0  0  0  0
    0.7855    5.1424   -3.8942 H   0  0  0  0  0  0
    0.0385    4.1935   -2.6148 H   0  0  0  0  0  0
    0.9966    3.3962   -3.8858 H   0  0  0  0  0  0
   -5.5167   -1.2040    4.3575 H   0  0  0  0  0  0
   -4.4895   -0.8539    3.0197 H   0  0  0  0  0  0
   -5.6755    3.5316    6.4715 H   0  0  0  0  0  0
   -6.1693    4.7711    5.3239 H   0  0  0  0  0  0
   -4.8206    3.7093    4.9446 H   0  0  0  0  0  0
  1  2  1  0  0  0
  1 41  1  0  0  0
  1 42  1  0  0  0
  1 43  1  0  0  0
  2  3  1  0  0  0
  2 33  1  0  0  0
  2 38  1  0  0  0
  3  4  2  0  0  0
  3  5  1  0  0  0
  5  6  1  0  0  0
  5 34  1  0  0  0
  6  7  1  0  0  0
  6 11  2  0  0  0
  7  8  2  0  0  0
  7 33  1  0  0  0
  8  9  1  0  0  0
  8 44  1  0  0  0
  9 10  2  0  0  0
  9 45  1  0  0  0
 10 11  1  0  0  0
 10 12  1  0  0  0
 12 13  1  0  0  0
 12 46  1  0  0  0
 13 14  1  0  0  0
 13 18  2  0  0  0
 14 15  2  0  0  0
 14 32  1  0  0  0
 15 16  1  0  0  0
 15 47  1  0  0  0
 16 17  2  0  0  0
 17 18  1  0  0  0
 17 19  1  0  0  0
 19 20  1  0  0  0
 19 48  1  0  0  0
 20 21  1  0  0  0
 20 25  2  0  0  0
 21 22  2  0  0  0
 21 49  1  0  0  0
 22 23  1  0  0  0
 22 30  1  0  0  0
 23 24  2  0  0  0
 23 28  1  0  0  0
 24 25  1  0  0  0
 24 26  1  0  0  0
 25 50  1  0  0  0
 26 27  1  0  0  0
 27 51  1  0  0  0
 27 52  1  0  0  0
 27 53  1  0  0  0
 28 29  1  0  0  0
 29 54  1  0  0  0
 29 55  1  0  0  0
 29 56  1  0  0  0
 30 31  1  0  0  0
 31 57  1  0  0  0
 31 58  1  0  0  0
 31 59  1  0  0  0
 34 35  1  0  0  0
 34 60  1  0  0  0
 34 61  1  0  0  0
 35 36  1  0  0  0
 36 37  2  0  0  0
 36 39  1  0  0  0
 36 40  1  0  0  0
 38 62  1  0  0  0
 38 63  1  0  0  0
 38 64  1  0  0  0
M  CHG  2  39  -1  40  -1
M  END
> <s_m_entry_id>
4

> <s_m_entry_name>
Fostamatinib.1

> <i_f3d_flags>
0

> <r_epik_Ionization_Penalty>
  0.0741

> <r_epik_State_Penalty>
  0.0636

> <i_epik_Tot_Q>
-2

> <s_pdb_PDB_TITLE>
Fostamatinib

> <s_m_Source_Path>
/media/4tb_disk1/SijieChen/TKI/pharmacophore_hypothesis-2/ligprep57_mae/inactive

> <s_m_Source_File>
Fostamatinib.mae

> <i_m_Source_File_Index>
1

> <r_lp_tautomer_probability>
0.999999622918466

$$$$
Lapatinib
                    3D
 Structure written by MMmdl.
 67 71  0  0  1  0            999 V2000
   -4.8279    2.5385   -1.7883 C   0  0  0  0  0  0
   -4.4020    3.1741   -0.1137 S   0  0  0  0  0  0
   -4.7133    4.6105   -0.0759 O   0  0  0  0  0  0
   -4.9942    2.2673    0.8813 O   0  0  0  0  0  0
   -2.5662    2.9827   -0.0710 C   0  0  0  0  0  0
   -2.1459    1.5075   -0.0096 C   0  0  0  0  0  0
   -0.2079   -0.0242    0.1061 C   0  0  0  0  0  0
    1.2809   -0.0927    0.0946 C   0  0  0  0  0  0
    2.2050   -0.3200   -0.8855 C   0  0  0  0  0  0
    3.4774   -0.2674   -0.2534 C   0  0  0  0  0  0
    3.2445   -0.0049    1.0696 C   0  0  0  0  0  0
    1.9024    0.1089    1.2896 O   0  0  0  0  0  0
    4.1303    0.1524    2.2201 C   0  0  0  0  0  0
    3.6538    0.6807    3.4390 C   0  0  0  0  0  0
    4.5120    0.8216    4.5458 C   0  0  0  0  0  0
    5.8642    0.4331    4.4691 C   0  0  0  0  0  0
    6.3495   -0.1042    3.2449 C   0  0  0  0  0  0
    5.4842   -0.2365    2.1339 C   0  0  0  0  0  0
    7.7143   -0.4967    3.2090 C   0  0  0  0  0  0
    8.5053   -0.3426    4.2960 N   0  0  0  0  0  0
    7.9506    0.1750    5.3919 C   0  0  0  0  0  0
    6.6840    0.5656    5.5351 N   0  0  0  0  0  0
    8.2785   -1.0204    2.0317 N   0  0  0  0  0  0
    9.4896   -1.7065    1.8483 C   0  0  0  0  0  0
   10.0729   -2.5158    2.8486 C   0  0  0  0  0  0
   11.2770   -3.2025    2.6019 C   0  0  0  0  0  0
   11.9204   -3.1009    1.3434 C   0  0  0  0  0  0
   11.3240   -2.3055    0.3412 C   0  0  0  0  0  0
   10.1181   -1.6219    0.5903 C   0  0  0  0  0  0
   12.0672   -2.1638   -1.2116 Cl  0  0  0  0  0  0
   13.1012   -3.7402    1.0281 O   0  0  0  0  0  0
   13.7159   -4.5575    2.0159 C   0  0  0  0  0  0
   14.9973   -5.1952    1.5118 C   0  0  0  0  0  0
   15.1436   -5.5355    0.1492 C   0  0  0  0  0  0
   16.3305   -6.1425   -0.3061 C   0  0  0  0  0  0
   17.3731   -6.4190    0.5991 C   0  0  0  0  0  0
   17.2272   -6.0914    1.9608 C   0  0  0  0  0  0
   16.0409   -5.4838    2.4164 C   0  0  0  0  0  0
   18.2269   -6.3614    2.8331 F   0  0  0  0  0  0
   -0.6768    1.3723    0.0362 N   0  3  0  0  0  0
   -5.8952    2.6750   -1.9627 H   0  0  0  0  0  0
   -4.5913    1.4775   -1.8577 H   0  0  0  0  0  0
   -4.2689    3.0897   -2.5440 H   0  0  0  0  0  0
   -2.1533    3.4790   -0.9497 H   0  0  0  0  0  0
   -2.2033    3.5167    0.8078 H   0  0  0  0  0  0
   -2.5746    1.0327    0.8738 H   0  0  0  0  0  0
   -2.5219    0.9705   -0.8803 H   0  0  0  0  0  0
   -0.6068   -0.5832   -0.7413 H   0  0  0  0  0  0
   -0.5955   -0.4939    1.0109 H   0  0  0  0  0  0
    1.9929   -0.5079   -1.9277 H   0  0  0  0  0  0
    4.4448   -0.4061   -0.7132 H   0  0  0  0  0  0
    2.6230    0.9875    3.5365 H   0  0  0  0  0  0
    4.1251    1.2311    5.4675 H   0  0  0  0  0  0
    5.8525   -0.6492    1.2066 H   0  0  0  0  0  0
    8.5938    0.2899    6.2517 H   0  0  0  0  0  0
    7.7483   -0.8503    1.1897 H   0  0  0  0  0  0
    9.5983   -2.6355    3.8108 H   0  0  0  0  0  0
   11.6838   -3.8074    3.3975 H   0  0  0  0  0  0
    9.6780   -1.0218   -0.1930 H   0  0  0  0  0  0
   13.9451   -3.9577    2.8984 H   0  0  0  0  0  0
   13.0391   -5.3587    2.3165 H   0  0  0  0  0  0
   14.3479   -5.3335   -0.5530 H   0  0  0  0  0  0
   16.4400   -6.3974   -1.3499 H   0  0  0  0  0  0
   18.2827   -6.8851    0.2496 H   0  0  0  0  0  0
   15.9349   -5.2390    3.4631 H   0  0  0  0  0  0
   -0.2870    1.7972   -0.7932 H   0  0  0  0  0  0
   -0.3295    1.8650    0.8468 H   0  0  0  0  0  0
  1  2  1  0  0  0
  1 41  1  0  0  0
  1 42  1  0  0  0
  1 43  1  0  0  0
  2  3  2  0  0  0
  2  4  2  0  0  0
  2  5  1  0  0  0
  5  6  1  0  0  0
  5 44  1  0  0  0
  5 45  1  0  0  0
  6 46  1  0  0  0
  6 47  1  0  0  0
  6 40  1  0  0  0
  7  8  1  0  0  0
  7 48  1  0  0  0
  7 49  1  0  0  0
  7 40  1  0  0  0
  8  9  2  0  0  0
  8 12  1  0  0  0
  9 10  1  0  0  0
  9 50  1  0  0  0
 10 11  2  0  0  0
 10 51  1  0  0  0
 11 12  1  0  0  0
 11 13  1  0  0  0
 13 14  1  0  0  0
 13 18  2  0  0  0
 14 15  2  0  0  0
 14 52  1  0  0  0
 15 16  1  0  0  0
 15 53  1  0  0  0
 16 17  1  0  0  0
 16 22  2  0  0  0
 17 18  1  0  0  0
 17 19  2  0  0  0
 18 54  1  0  0  0
 19 20  1  0  0  0
 19 23  1  0  0  0
 20 21  2  0  0  0
 21 22  1  0  0  0
 21 55  1  0  0  0
 23 24  1  0  0  0
 23 56  1  0  0  0
 24 25  1  0  0  0
 24 29  2  0  0  0
 25 26  2  0  0  0
 25 57  1  0  0  0
 26 27  1  0  0  0
 26 58  1  0  0  0
 27 28  2  0  0  0
 27 31  1  0  0  0
 28 29  1  0  0  0
 28 30  1  0  0  0
 29 59  1  0  0  0
 31 32  1  0  0  0
 32 33  1  0  0  0
 32 60  1  0  0  0
 32 61  1  0  0  0
 33 34  1  0  0  0
 33 38  2  0  0  0
 34 35  2  0  0  0
 34 62  1  0  0  0
 35 36  1  0  0  0
 35 63  1  0  0  0
 36 37  2  0  0  0
 36 64  1  0  0  0
 37 38  1  0  0  0
 37 39  1  0  0  0
 38 65  1  0  0  0
 40 66  1  0  0  0
 40 67  1  0  0  0
M  CHG  1  40   1
M  END
> <s_m_entry_id>
5

> <s_m_entry_name>
Lapatinib.1

> <i_f3d_flags>
0

> <r_epik_Ionization_Penalty>
  0.0160

> <r_epik_State_Penalty>
  0.0120

> <i_epik_Tot_Q>
1

> <s_pdb_PDB_TITLE>
Lapatinib

> <s_m_Source_Path>
/media/4tb_disk1/SijieChen/TKI/pharmacophore_hypothesis-2/ligprep57_mae/inactive

> <s_m_Source_File>
Lapatinib.mae

> <i_m_Source_File_Index>
1

> <r_lp_tautomer_probability>
0.999978000241998

$$$$
Larotrectinib
                    3D
 Structure written by MMmdl.
 53 57  0  0  1  0            999 V2000
   -2.7544   -5.1129   -4.9029 C   0  0  0  0  0  0
   -1.4002   -4.7343   -4.8354 C   0  0  0  0  0  0
   -0.7333   -4.7090   -3.5947 C   0  0  0  0  0  0
   -1.4207   -5.0602   -2.4113 C   0  0  0  0  0  0
   -2.7773   -5.4486   -2.4880 C   0  0  0  0  0  0
   -3.4425   -5.4717   -3.7286 C   0  0  0  0  0  0
   -4.7441   -5.8391   -3.7919 F   0  0  0  0  0  0
   -0.6994   -5.0255   -1.0691 C   0  0  2  0  0  0
   -0.2214   -6.4021   -0.6097 C   0  0  0  0  0  0
    0.0431   -6.1734    0.8768 C   0  0  0  0  0  0
   -0.9988   -5.1241    1.2863 C   0  0  0  0  0  0
   -1.4940   -4.5284    0.0501 N   0  0  0  0  0  0
   -1.7421   -3.1697    0.0760 C   0  0  0  0  0  0
   -3.0877   -2.7287   -0.0199 C   0  0  0  0  0  0
   -3.3399   -1.3760   -0.0139 C   0  0  0  0  0  0
   -2.2733   -0.5347    0.0860 N   0  0  0  0  0  0
   -0.9514   -1.0284    0.1846 C   0  0  0  0  0  0
   -0.6961   -2.3486    0.1815 N   0  0  0  0  0  0
   -0.1733    0.0913    0.2665 C   0  0  0  0  0  0
   -1.0571    1.1999    0.2137 C   0  0  0  0  0  0
   -2.3172    0.8405    0.1052 N   0  0  0  0  0  0
    1.2395    0.0747    0.3877 N   0  0  0  0  0  0
    2.0775    1.1277    0.4254 C   0  0  0  0  0  0
    1.7127    2.2991    0.3208 O   0  0  0  0  0  0
    3.3742    0.7832    0.5875 N   0  0  0  0  0  0
    3.9068   -0.5764    0.7277 C   0  0  0  0  0  0
    5.4276   -0.4355    0.6686 C   0  0  0  0  0  0
    5.6845    0.9881    1.1470 C   0  0  2  0  0  0
    4.4523    1.7671    0.6816 C   0  0  0  0  0  0
    6.8830    1.5085    0.6118 O   0  0  0  0  0  0
    0.5704   -4.3434   -3.5480 F   0  0  0  0  0  0
   -3.2640   -5.1302   -5.8550 H   0  0  0  0  0  0
   -0.8722   -4.4624   -5.7374 H   0  0  0  0  0  0
   -3.3148   -5.7290   -1.5940 H   0  0  0  0  0  0
    0.1783   -4.3853   -1.1690 H   0  0  0  0  0  0
   -1.0161   -7.1407   -0.7265 H   0  0  0  0  0  0
    0.6534   -6.7555   -1.1562 H   0  0  0  0  0  0
   -0.0232   -7.0885    1.4659 H   0  0  0  0  0  0
    1.0446   -5.7618    1.0085 H   0  0  0  0  0  0
   -1.8372   -5.6017    1.7941 H   0  0  0  0  0  0
   -0.5738   -4.3881    1.9703 H   0  0  0  0  0  0
   -3.9052   -3.4377   -0.1043 H   0  0  0  0  0  0
   -4.3305   -0.9392   -0.0865 H   0  0  0  0  0  0
   -0.8140    2.2510    0.2546 H   0  0  0  0  0  0
    1.6622   -0.8397    0.4598 H   0  0  0  0  0  0
    3.5985   -0.9823    1.6923 H   0  0  0  0  0  0
    3.5472   -1.2457   -0.0556 H   0  0  0  0  0  0
    5.9471   -1.1842    1.2674 H   0  0  0  0  0  0
    5.7557   -0.5500   -0.3659 H   0  0  0  0  0  0
    5.7356    1.0019    2.2367 H   0  0  0  0  0  0
    4.6095    2.1989   -0.3084 H   0  0  0  0  0  0
    4.2145    2.5796    1.3704 H   0  0  0  0  0  0
    6.8234    1.4918   -0.3313 H   0  0  0  0  0  0
  1  2  1  0  0  0
  1  6  2  0  0  0
  1 32  1  0  0  0
  2  3  2  0  0  0
  2 33  1  0  0  0
  3  4  1  0  0  0
  3 31  1  0  0  0
  4  5  2  0  0  0
  4  8  1  0  0  0
  5  6  1  0  0  0
  5 34  1  0  0  0
  6  7  1  0  0  0
  8  9  1  0  0  0
  8 12  1  0  0  0
  8 35  1  0  0  0
  9 10  1  0  0  0
  9 36  1  0  0  0
  9 37  1  0  0  0
 10 11  1  0  0  0
 10 38  1  0  0  0
 10 39  1  0  0  0
 11 12  1  0  0  0
 11 40  1  0  0  0
 11 41  1  0  0  0
 12 13  1  0  0  0
 13 14  1  0  0  0
 13 18  2  0  0  0
 14 15  2  0  0  0
 14 42  1  0  0  0
 15 16  1  0  0  0
 15 43  1  0  0  0
 16 17  1  0  0  0
 16 21  1  0  0  0
 17 18  1  0  0  0
 17 19  2  0  0  0
 19 20  1  0  0  0
 19 22  1  0  0  0
 20 21  2  0  0  0
 20 44  1  0  0  0
 22 23  1  0  0  0
 22 45  1  0  0  0
 23 24  2  0  0  0
 23 25  1  0  0  0
 25 26  1  0  0  0
 25 29  1  0  0  0
 26 27  1  0  0  0
 26 46  1  0  0  0
 26 47  1  0  0  0
 27 28  1  0  0  0
 27 48  1  0  0  0
 27 49  1  0  0  0
 28 29  1  0  0  0
 28 30  1  0  0  0
 28 50  1  0  0  0
 29 51  1  0  0  0
 29 52  1  0  0  0
 30 53  1  0  0  0
M  END
> <s_m_entry_id>
6

> <s_m_entry_name>
Larotrectinib.1

> <i_f3d_flags>
0

> <r_epik_Ionization_Penalty>
  0.0003

> <r_epik_State_Penalty>
  0.0000

> <i_epik_Tot_Q>
0

> <s_pdb_PDB_TITLE>
Larotrectinib

> <s_m_Source_Path>
/media/4tb_disk1/SijieChen/TKI/pharmacophore_hypothesis-2/ligprep57_mae/inactive

> <s_m_Source_File>
Larotrectinib.mae

> <i_m_Source_File_Index>
1

> <r_lp_tautomer_probability>
1

$$$$
Midostaurin
                    3D
 Structure written by MMmdl.
 73 81  0  0  1  0            999 V2000
    1.0649   -3.4725   -1.9097 C   0  0  0  0  0  0
   -0.1481   -2.7951   -1.2331 C   0  0  2  0  0  0
   -0.1464   -1.2099   -1.4156 C   0  0  1  0  0  0
    0.1975   -0.4183   -0.0516 C   0  0  1  0  0  0
   -0.2776   -1.1026    1.2986 C   0  0  0  0  0  0
   -0.9549   -2.3420    0.7900 C   0  0  1  0  0  0
    0.0234   -3.0168    0.0968 O   0  0  0  0  0  0
   -1.6376   -3.3636    1.5004 N   0  0  0  0  0  0
   -1.9066   -3.6521    2.8423 C   0  0  0  0  0  0
   -1.5286   -3.1005    4.0774 C   0  0  0  0  0  0
   -2.0425   -3.6692    5.2591 C   0  0  0  0  0  0
   -2.9293   -4.7661    5.1963 C   0  0  0  0  0  0
   -3.3212   -5.3144    3.9558 C   0  0  0  0  0  0
   -2.8128   -4.7657    2.7548 C   0  0  0  0  0  0
   -3.0531   -5.0917    1.4108 C   0  0  0  0  0  0
   -2.2555   -4.2366    0.6680 C   0  0  0  0  0  0
   -2.1967   -4.2405   -0.7673 C   0  0  0  0  0  0
   -1.3900   -3.5297   -1.6455 N   0  0  0  0  0  0
   -1.8368   -3.7674   -2.9659 C   0  0  0  0  0  0
   -1.4613   -3.3093   -4.2424 C   0  0  0  0  0  0
   -2.1239   -3.8208   -5.3772 C   0  0  0  0  0  0
   -3.1443   -4.7878   -5.2386 C   0  0  0  0  0  0
   -3.5230   -5.2582   -3.9636 C   0  0  0  0  0  0
   -2.8715   -4.7465   -2.8204 C   0  0  0  0  0  0
   -3.0635   -5.0432   -1.4812 C   0  0  0  0  0  0
   -3.8953   -5.9206   -0.7480 C   0  0  0  0  0  0
   -3.8783   -5.9711    0.6532 C   0  0  0  0  0  0
   -4.8678   -6.9923    1.0967 C   0  0  0  0  0  0
   -5.1298   -7.3156    2.2505 O   0  0  0  0  0  0
   -5.4225   -7.4964   -0.0199 N   0  0  0  0  0  0
   -4.9051   -6.9127   -1.2610 C   0  0  0  0  0  0
    1.5981    0.0723    0.0008 N   0  0  0  0  0  0
    1.7813    1.5053   -0.2866 C   0  0  0  0  0  0
    2.6668   -0.7236    0.2708 C   0  0  0  0  0  0
    2.5868   -1.9054    0.5983 O   0  0  0  0  0  0
    4.0333   -0.1210    0.1389 C   0  0  0  0  0  0
    4.7202   -0.1959   -1.0917 C   0  0  0  0  0  0
    6.0052    0.3667   -1.2183 C   0  0  0  0  0  0
    6.6079    1.0028   -0.1156 C   0  0  0  0  0  0
    5.9273    1.0741    1.1154 C   0  0  0  0  0  0
    4.6430    0.5101    1.2444 C   0  0  0  0  0  0
    0.7128   -0.8286   -2.4864 O   0  0  0  0  0  0
    0.2548    0.2957   -3.2198 C   0  0  0  0  0  0
    1.0125   -3.3765   -2.9928 H   0  0  0  0  0  0
    1.0879   -4.5334   -1.6576 H   0  0  0  0  0  0
    1.9981   -3.0207   -1.5809 H   0  0  0  0  0  0
   -1.1718   -0.9576   -1.6956 H   0  0  0  0  0  0
   -0.4439    0.4599   -0.1132 H   0  0  0  0  0  0
    0.5254   -1.3765    1.9819 H   0  0  0  0  0  0
   -0.9947   -0.4872    1.8433 H   0  0  0  0  0  0
   -1.7920   -1.9234    0.2190 H   0  0  0  0  0  0
   -0.8552   -2.2573    4.1196 H   0  0  0  0  0  0
   -1.7588   -3.2620    6.2183 H   0  0  0  0  0  0
   -3.3169   -5.1895    6.1112 H   0  0  0  0  0  0
   -4.0007   -6.1473    3.9591 H   0  0  0  0  0  0
   -0.6786   -2.5742   -4.3562 H   0  0  0  0  0  0
   -1.8454   -3.4729   -6.3611 H   0  0  0  0  0  0
   -3.6396   -5.1719   -6.1182 H   0  0  0  0  0  0
   -4.3037   -5.9980   -3.8706 H   0  0  0  0  0  0
   -6.1334   -8.2132   -0.0175 H   0  0  0  0  0  0
   -5.6977   -6.4161   -1.8214 H   0  0  0  0  0  0
   -4.4316   -7.6704   -1.8859 H   0  0  0  0  0  0
    2.3787    1.6425   -1.1888 H   0  0  0  0  0  0
    2.2907    2.0033    0.5394 H   0  0  0  0  0  0
    0.8519    2.0510   -0.4448 H   0  0  0  0  0  0
    4.2633   -0.6825   -1.9417 H   0  0  0  0  0  0
    6.5289    0.3097   -2.1613 H   0  0  0  0  0  0
    7.5932    1.4341   -0.2135 H   0  0  0  0  0  0
    6.3908    1.5610    1.9608 H   0  0  0  0  0  0
    4.1265    0.5680    2.1918 H   0  0  0  0  0  0
    0.9972    0.5697   -3.9690 H   0  0  0  0  0  0
    0.0900    1.1590   -2.5759 H   0  0  0  0  0  0
   -0.6768    0.0676   -3.7388 H   0  0  0  0  0  0
  1  2  1  0  0  0
  1 44  1  0  0  0
  1 45  1  0  0  0
  1 46  1  0  0  0
  2  3  1  0  0  0
  2  7  1  0  0  0
  2 18  1  0  0  0
  3  4  1  0  0  0
  3 42  1  0  0  0
  3 47  1  0  0  0
  4  5  1  0  0  0
  4 32  1  0  0  0
  4 48  1  0  0  0
  5  6  1  0  0  0
  5 49  1  0  0  0
  5 50  1  0  0  0
  6  7  1  0  0  0
  6  8  1  0  0  0
  6 51  1  0  0  0
  8  9  1  0  0  0
  8 16  1  0  0  0
  9 10  1  0  0  0
  9 14  2  0  0  0
 10 11  2  0  0  0
 10 52  1  0  0  0
 11 12  1  0  0  0
 11 53  1  0  0  0
 12 13  2  0  0  0
 12 54  1  0  0  0
 13 14  1  0  0  0
 13 55  1  0  0  0
 14 15  1  0  0  0
 15 16  2  0  0  0
 15 27  1  0  0  0
 16 17  1  0  0  0
 17 18  1  0  0  0
 17 25  2  0  0  0
 18 19  1  0  0  0
 19 20  2  0  0  0
 19 24  1  0  0  0
 20 21  1  0  0  0
 20 56  1  0  0  0
 21 22  2  0  0  0
 21 57  1  0  0  0
 22 23  1  0  0  0
 22 58  1  0  0  0
 23 24  2  0  0  0
 23 59  1  0  0  0
 24 25  1  0  0  0
 25 26  1  0  0  0
 26 27  2  0  0  0
 26 31  1  0  0  0
 27 28  1  0  0  0
 28 29  2  0  0  0
 28 30  1  0  0  0
 30 31  1  0  0  0
 30 60  1  0  0  0
 31 61  1  0  0  0
 31 62  1  0  0  0
 32 33  1  0  0  0
 32 34  1  0  0  0
 33 63  1  0  0  0
 33 64  1  0  0  0
 33 65  1  0  0  0
 34 35  2  0  0  0
 34 36  1  0  0  0
 36 37  1  0  0  0
 36 41  2  0  0  0
 37 38  2  0  0  0
 37 66  1  0  0  0
 38 39  1  0  0  0
 38 67  1  0  0  0
 39 40  2  0  0  0
 39 68  1  0  0  0
 40 41  1  0  0  0
 40 69  1  0  0  0
 41 70  1  0  0  0
 42 43  1  0  0  0
 43 71  1  0  0  0
 43 72  1  0  0  0
 43 73  1  0  0  0
M  END
> <s_m_entry_id>
7

> <s_m_entry_name>
Midostaurin.1

> <i_f3d_flags>
0

> <r_epik_Ionization_Penalty>
  0.0000

> <r_epik_State_Penalty>
  0.0000

> <i_epik_Tot_Q>
0

> <s_pdb_PDB_TITLE>
Midostaurin

> <s_m_Source_Path>
/media/4tb_disk1/SijieChen/TKI/pharmacophore_hypothesis-2/ligprep57_mae/inactive

> <s_m_Source_File>
Midostaurin.mae

> <i_m_Source_File_Index>
1

> <r_lp_tautomer_probability>
1

$$$$
Vemurafenib
                    3D
 Structure written by MMmdl.
 51 54  0  0  1  0            999 V2000
   -0.0640    3.9606   -1.1977 C   0  0  0  0  0  0
    0.0520    2.4331   -1.2274 C   0  0  0  0  0  0
   -0.1654    1.8001    0.1543 C   0  0  0  0  0  0
    0.0083   -0.0345    0.0944 S   0  0  0  0  0  0
   -0.3162   -0.6017    1.4120 O   0  0  0  0  0  0
   -0.6045   -0.5579   -1.1360 O   0  0  0  0  0  0
    1.7175   -0.2381   -0.1043 N   0  0  0  0  0  0
    2.4555   -1.4249   -0.1142 C   0  0  0  0  0  0
    1.8222   -2.6859   -0.1190 C   0  0  0  0  0  0
    2.5922   -3.8633   -0.1123 C   0  0  0  0  0  0
    3.9976   -3.7912   -0.0827 C   0  0  0  0  0  0
    4.6413   -2.5332   -0.0642 C   0  0  0  0  0  0
    3.8635   -1.3512   -0.1055 C   0  0  0  0  0  0
    4.4647   -0.1349   -0.1128 F   0  0  0  0  0  0
    6.1215   -2.4607    0.0104 C   0  0  0  0  0  0
    6.8214   -2.9886   -0.8536 O   0  0  0  0  0  0
    6.6691   -1.7464    1.1627 C   0  0  0  0  0  0
    7.9733   -1.3145    1.2135 C   0  0  0  0  0  0
    8.1947   -0.6572    2.4112 N   0  0  0  0  0  0
    7.0490   -0.6542    3.1765 C   0  0  0  0  0  0
    6.0691   -1.3511    2.4185 C   0  0  0  0  0  0
    4.8090   -1.4801    3.0477 C   0  0  0  0  0  0
    4.5740   -0.9120    4.3194 C   0  0  0  0  0  0
    5.6556   -0.2421    4.9404 C   0  0  0  0  0  0
    6.8909   -0.0994    4.4110 N   0  0  0  0  0  0
    3.2484   -1.0115    4.9622 C   0  0  0  0  0  0
    3.1287   -1.1896    6.3599 C   0  0  0  0  0  0
    1.8641   -1.2849    6.9724 C   0  0  0  0  0  0
    0.6957   -1.2017    6.1932 C   0  0  0  0  0  0
    0.7966   -1.0241    4.8015 C   0  0  0  0  0  0
    2.0631   -0.9304    4.1934 C   0  0  0  0  0  0
   -0.8547   -1.3162    6.9415 Cl  0  0  0  0  0  0
    4.7194   -4.9381   -0.0510 F   0  0  0  0  0  0
    0.0956    4.3810   -2.1910 H   0  0  0  0  0  0
    0.6760    4.3993   -0.5279 H   0  0  0  0  0  0
   -1.0518    4.2737   -0.8587 H   0  0  0  0  0  0
   -0.6767    2.0338   -1.9333 H   0  0  0  0  0  0
    1.0353    2.1553   -1.6081 H   0  0  0  0  0  0
    0.5400    2.1880    0.8895 H   0  0  0  0  0  0
   -1.1703    2.0247    0.5129 H   0  0  0  0  0  0
    2.2677    0.6082   -0.1291 H   0  0  0  0  0  0
    0.7452   -2.7639   -0.1289 H   0  0  0  0  0  0
    2.1025   -4.8260   -0.1180 H   0  0  0  0  0  0
    8.7655   -1.4119    0.4851 H   0  0  0  0  0  0
    9.0815   -0.2462    2.6649 H   0  0  0  0  0  0
    4.0164   -2.0178    2.5513 H   0  0  0  0  0  0
    5.5245    0.2142    5.9105 H   0  0  0  0  0  0
    4.0126   -1.2630    6.9763 H   0  0  0  0  0  0
    1.7934   -1.4230    8.0412 H   0  0  0  0  0  0
   -0.0964   -0.9570    4.1978 H   0  0  0  0  0  0
    2.1152   -0.7861    3.1239 H   0  0  0  0  0  0
  1  2  1  0  0  0
  1 34  1  0  0  0
  1 35  1  0  0  0
  1 36  1  0  0  0
  2  3  1  0  0  0
  2 37  1  0  0  0
  2 38  1  0  0  0
  3  4  1  0  0  0
  3 39  1  0  0  0
  3 40  1  0  0  0
  4  5  2  0  0  0
  4  6  2  0  0  0
  4  7  1  0  0  0
  7  8  1  0  0  0
  7 41  1  0  0  0
  8  9  1  0  0  0
  8 13  2  0  0  0
  9 10  2  0  0  0
  9 42  1  0  0  0
 10 11  1  0  0  0
 10 43  1  0  0  0
 11 12  2  0  0  0
 11 33  1  0  0  0
 12 13  1  0  0  0
 12 15  1  0  0  0
 13 14  1  0  0  0
 15 16  2  0  0  0
 15 17  1  0  0  0
 17 18  2  0  0  0
 17 21  1  0  0  0
 18 19  1  0  0  0
 18 44  1  0  0  0
 19 20  1  0  0  0
 19 45  1  0  0  0
 20 21  1  0  0  0
 20 25  2  0  0  0
 21 22  2  0  0  0
 22 23  1  0  0  0
 22 46  1  0  0  0
 23 24  2  0  0  0
 23 26  1  0  0  0
 24 25  1  0  0  0
 24 47  1  0  0  0
 26 27  1  0  0  0
 26 31  2  0  0  0
 27 28  2  0  0  0
 27 48  1  0  0  0
 28 29  1  0  0  0
 28 49  1  0  0  0
 29 30  2  0  0  0
 29 32  1  0  0  0
 30 31  1  0  0  0
 30 50  1  0  0  0
 31 51  1  0  0  0
M  END
> <s_m_entry_id>
8

> <s_m_entry_name>
Vemurafenib.1

> <i_f3d_flags>
0

> <r_epik_Ionization_Penalty>
  0.3813

> <r_epik_State_Penalty>
  0.3792

> <i_epik_Tot_Q>
0

> <s_pdb_PDB_TITLE>
Vemurafenib

> <s_m_Source_Path>
/media/4tb_disk1/SijieChen/TKI/pharmacophore_hypothesis-2/ligprep57_mae/inactive

> <s_m_Source_File>
Vemurafenib.mae

> <i_m_Source_File_Index>
1

$$$$
