Zanubrutinib
                    3D
 Structure written by MMmdl.
 64 68  0  0  1  0            999 V2000
   -5.1743   -3.8338   -6.5405 C   0  0  0  0  0  0
   -4.5995   -3.4888   -5.3752 C   0  0  0  0  0  0
   -4.6729   -4.3749   -4.2185 C   0  0  0  0  0  0
   -5.5480   -5.2337   -4.0927 O   0  0  0  0  0  0
   -3.7454   -4.1520   -3.2489 N   0  0  0  0  0  0
   -3.8665   -4.7340   -1.9049 C   0  0  0  0  0  0
   -4.1555   -3.5981   -0.9051 C   0  0  0  0  0  0
   -3.0620   -2.5038   -0.9597 C   0  0  0  0  0  0
   -2.7952   -2.0563   -2.4211 C   0  0  0  0  0  0
   -2.5639   -3.2781   -3.3264 C   0  0  0  0  0  0
   -3.3162   -1.3374    0.0392 C   0  0  2  0  0  0
   -4.6749   -0.6205   -0.1727 C   0  0  0  0  0  0
   -4.7640    0.7083    0.5999 C   0  0  0  0  0  0
   -3.6468    1.5872    0.2846 N   0  0  0  0  0  0
   -2.3745    1.0223    0.1896 C   0  0  0  0  0  0
   -2.2408   -0.3457    0.0512 N   0  0  0  0  0  0
   -0.9378   -0.7196    0.0221 N   0  0  0  0  0  0
   -0.2317    0.4064    0.0666 C   0  0  0  0  0  0
   -1.1063    1.5306    0.1791 C   0  0  0  0  0  0
   -0.7170    2.9801    0.2116 C   0  0  0  0  0  0
    0.2403    3.4003   -0.4346 O   0  0  0  0  0  0
   -1.4407    3.7613    1.0179 N   0  0  0  0  0  0
    1.2332    0.3296    0.0218 C   0  0  0  0  0  0
    1.8727   -0.5317   -0.8972 C   0  0  0  0  0  0
    3.2780   -0.6065   -0.9480 C   0  0  0  0  0  0
    4.0617    0.1754   -0.0775 C   0  0  0  0  0  0
    3.4289    1.0399    0.8411 C   0  0  0  0  0  0
    2.0235    1.1108    0.8930 C   0  0  0  0  0  0
    5.4292    0.0983   -0.1523 O   0  0  0  0  0  0
    6.1115   -0.2490    0.9857 C   0  0  0  0  0  0
    5.8485   -1.4671    1.6507 C   0  0  0  0  0  0
    6.5686   -1.8088    2.8120 C   0  0  0  0  0  0
    7.5572   -0.9378    3.3097 C   0  0  0  0  0  0
    7.8269    0.2741    2.6448 C   0  0  0  0  0  0
    7.1064    0.6164    1.4839 C   0  0  0  0  0  0
   -5.6948   -4.7721   -6.6711 H   0  0  0  0  0  0
   -5.1289   -3.1697   -7.3908 H   0  0  0  0  0  0
   -4.1080   -2.5296   -5.3211 H   0  0  0  0  0  0
   -4.6506   -5.4887   -1.8333 H   0  0  0  0  0  0
   -2.9406   -5.2467   -1.6401 H   0  0  0  0  0  0
   -5.1310   -3.1717   -1.1397 H   0  0  0  0  0  0
   -4.2286   -4.0036    0.1043 H   0  0  0  0  0  0
   -2.1478   -2.9981   -0.6270 H   0  0  0  0  0  0
   -3.6358   -1.4806   -2.8075 H   0  0  0  0  0  0
   -1.9250   -1.4023   -2.4728 H   0  0  0  0  0  0
   -1.6905   -3.8294   -2.9749 H   0  0  0  0  0  0
   -2.2983   -2.9723   -4.3370 H   0  0  0  0  0  0
   -3.3340   -1.7628    1.0436 H   0  0  0  0  0  0
   -4.8254   -0.4065   -1.2304 H   0  0  0  0  0  0
   -5.4978   -1.2686    0.1289 H   0  0  0  0  0  0
   -5.6975    1.2196    0.3646 H   0  0  0  0  0  0
   -4.7659    0.5185    1.6737 H   0  0  0  0  0  0
   -3.7893    2.5818    0.3874 H   0  0  0  0  0  0
   -2.2011    3.3670    1.5522 H   0  0  0  0  0  0
   -1.2167    4.7428    1.0974 H   0  0  0  0  0  0
    1.2861   -1.1363   -1.5735 H   0  0  0  0  0  0
    3.7556   -1.2659   -1.6575 H   0  0  0  0  0  0
    4.0204    1.6487    1.5092 H   0  0  0  0  0  0
    1.5548    1.7705    1.6083 H   0  0  0  0  0  0
    5.0936   -2.1405    1.2717 H   0  0  0  0  0  0
    6.3633   -2.7394    3.3202 H   0  0  0  0  0  0
    8.1102   -1.2003    4.1996 H   0  0  0  0  0  0
    8.5873    0.9405    3.0244 H   0  0  0  0  0  0
    7.3164    1.5458    0.9754 H   0  0  0  0  0  0
  1  2  2  0  0  0
  1 36  1  0  0  0
  1 37  1  0  0  0
  2  3  1  0  0  0
  2 38  1  0  0  0
  3  4  2  0  0  0
  3  5  1  0  0  0
  5  6  1  0  0  0
  5 10  1  0  0  0
  6  7  1  0  0  0
  6 39  1  0  0  0
  6 40  1  0  0  0
  7  8  1  0  0  0
  7 41  1  0  0  0
  7 42  1  0  0  0
  8  9  1  0  0  0
  8 11  1  0  0  0
  8 43  1  0  0  0
  9 10  1  0  0  0
  9 44  1  0  0  0
  9 45  1  0  0  0
 10 46  1  0  0  0
 10 47  1  0  0  0
 11 12  1  0  0  0
 11 16  1  0  0  0
 11 48  1  0  0  0
 12 13  1  0  0  0
 12 49  1  0  0  0
 12 50  1  0  0  0
 13 14  1  0  0  0
 13 51  1  0  0  0
 13 52  1  0  0  0
 14 15  1  0  0  0
 14 53  1  0  0  0
 15 16  1  0  0  0
 15 19  2  0  0  0
 16 17  1  0  0  0
 17 18  2  0  0  0
 18 19  1  0  0  0
 18 23  1  0  0  0
 19 20  1  0  0  0
 20 21  2  0  0  0
 20 22  1  0  0  0
 22 54  1  0  0  0
 22 55  1  0  0  0
 23 24  1  0  0  0
 23 28  2  0  0  0
 24 25  2  0  0  0
 24 56  1  0  0  0
 25 26  1  0  0  0
 25 57  1  0  0  0
 26 27  2  0  0  0
 26 29  1  0  0  0
 27 28  1  0  0  0
 27 58  1  0  0  0
 28 59  1  0  0  0
 29 30  1  0  0  0
 30 31  1  0  0  0
 30 35  2  0  0  0
 31 32  2  0  0  0
 31 60  1  0  0  0
 32 33  1  0  0  0
 32 61  1  0  0  0
 33 34  2  0  0  0
 33 62  1  0  0  0
 34 35  1  0  0  0
 34 63  1  0  0  0
 35 64  1  0  0  0
M  END
> <s_m_entry_id>
1

> <i_f3d_flags>
0

> <r_lp_tautomer_probability>
1

> <r_epik_Ionization_Penalty>
  0.0001

> <r_epik_State_Penalty>
  0.0000

> <i_epik_Tot_Q>
0

> <s_pdb_PDB_TITLE>
Zanubrutinib

> <s_m_Source_Path>
/media/4tb_disk1/SijieChen/TKI/pharmacophore_hypothesis-2/ligprep57_mae/active_less_than_50

> <s_m_Source_File>
Zanubrutinib.mae

> <i_m_Source_File_Index>
1

$$$$
Vandetanib
                    3D
 Structure written by MMmdl.
 55 58  0  0  1  0            999 V2000
   25.1900   36.3250   20.1070 C   0  0  0  0  0  0
   24.7730   35.9450   22.5780 C   0  0  0  0  0  0
   24.6360   34.8470   23.6490 C   0  0  0  0  0  0
   25.9350   34.0190   23.7490 C   0  0  2  0  0  0
   26.1860   33.3450   22.3820 C   0  0  0  0  0  0
   26.3500   34.3980   21.2700 C   0  0  0  0  0  0
   25.8840   32.9930   24.9010 C   0  0  0  0  0  0
   25.8740   33.6910   26.1490 O   0  0  0  0  0  0
   27.0570   33.7710   26.8550 C   0  0  0  0  0  0
   27.8600   32.6550   27.0710 C   0  0  0  0  0  0
   29.0550   32.7470   27.8060 C   0  0  0  0  0  0
   29.4700   34.0150   28.3170 C   0  0  0  0  0  0
   28.6340   35.1370   28.0970 C   0  0  0  0  0  0
   27.4120   34.9980   27.4220 C   0  0  0  0  0  0
   26.4970   36.0160   27.3050 O   0  0  0  0  0  0
   26.8410   37.3000   27.7980 C   0  0  0  0  0  0
   30.6590   34.0130   29.1110 C   0  0  0  0  0  0
   31.3130   32.8610   29.4100 N   0  0  0  0  0  0
   30.8170   31.7210   28.8810 C   0  0  0  0  0  0
   29.7410   31.6030   28.0710 N   0  0  0  0  0  0
   31.1520   35.2050   29.6720 N   0  0  0  0  0  0
   32.1240   35.3780   30.6700 C   0  0  0  0  0  0
   31.7680   36.1130   31.8050 C   0  0  0  0  0  0
   32.6910   36.3220   32.8310 C   0  0  0  0  0  0
   33.9840   35.8140   32.7180 C   0  0  0  0  0  0
   34.3590   35.1130   31.5740 C   0  0  0  0  0  0
   33.4410   34.9060   30.5420 C   0  0  0  0  0  0
   33.8510   34.2540   29.4260 F   0  0  0  0  0  0
   35.2390   36.0910   34.1190 Br  0  0  0  0  0  0
   25.0670   35.2620   21.2190 N   0  3  2  0  0  0
   26.0400   36.9690   20.3460 H   0  0  0  0  0  0
   25.3460   35.8000   19.1610 H   0  0  0  0  0  0
   24.2580   36.8910   20.0830 H   0  0  0  0  0  0
   23.8610   36.5360   22.4710 H   0  0  0  0  0  0
   25.6130   36.6070   22.7840 H   0  0  0  0  0  0
   24.4220   35.2940   24.6210 H   0  0  0  0  0  0
   23.7780   34.2010   23.4540 H   0  0  0  0  0  0
   26.7640   34.7080   23.9440 H   0  0  0  0  0  0
   25.3860   32.6370   22.1500 H   0  0  0  0  0  0
   27.0890   32.7310   22.4380 H   0  0  0  0  0  0
   26.4740   33.9360   20.2880 H   0  0  0  0  0  0
   27.1900   35.0720   21.4600 H   0  0  0  0  0  0
   24.9770   32.3920   24.8340 H   0  0  0  0  0  0
   26.7160   32.3010   24.7940 H   0  0  0  0  0  0
   27.5320   31.6900   26.7350 H   0  0  0  0  0  0
   28.9120   36.0870   28.5230 H   0  0  0  0  0  0
   26.0250   37.9990   27.6500 H   0  0  0  0  0  0
   27.0550   37.2890   28.8680 H   0  0  0  0  0  0
   27.6990   37.6890   27.2500 H   0  0  0  0  0  0
   31.3010   30.7990   29.1570 H   0  0  0  0  0  0
   30.6020   36.0360   29.4690 H   0  0  0  0  0  0
   30.7700   36.5130   31.9040 H   0  0  0  0  0  0
   32.4000   36.8780   33.7110 H   0  0  0  0  0  0
   35.3660   34.7350   31.4760 H   0  0  0  0  0  0
   24.2870   34.6510   21.0100 H   0  0  0  0  0  0
  1 31  1  0  0  0
  1 32  1  0  0  0
  1 33  1  0  0  0
  1 30  1  0  0  0
  2  3  1  0  0  0
  2 34  1  0  0  0
  2 35  1  0  0  0
  2 30  1  0  0  0
  3  4  1  0  0  0
  3 36  1  0  0  0
  3 37  1  0  0  0
  4  5  1  0  0  0
  4  7  1  0  0  0
  4 38  1  0  0  0
  5  6  1  0  0  0
  5 39  1  0  0  0
  5 40  1  0  0  0
  6 41  1  0  0  0
  6 42  1  0  0  0
  6 30  1  0  0  0
  7  8  1  0  0  0
  7 43  1  0  0  0
  7 44  1  0  0  0
  8  9  1  0  0  0
  9 10  1  0  0  0
  9 14  2  0  0  0
 10 11  2  0  0  0
 10 45  1  0  0  0
 11 12  1  0  0  0
 11 20  1  0  0  0
 12 13  2  0  0  0
 12 17  1  0  0  0
 13 14  1  0  0  0
 13 46  1  0  0  0
 14 15  1  0  0  0
 15 16  1  0  0  0
 16 47  1  0  0  0
 16 48  1  0  0  0
 16 49  1  0  0  0
 17 18  2  0  0  0
 17 21  1  0  0  0
 18 19  1  0  0  0
 19 20  2  0  0  0
 19 50  1  0  0  0
 21 22  1  0  0  0
 21 51  1  0  0  0
 22 23  1  0  0  0
 22 27  2  0  0  0
 23 24  2  0  0  0
 23 52  1  0  0  0
 24 25  1  0  0  0
 24 53  1  0  0  0
 25 26  2  0  0  0
 25 29  1  0  0  0
 26 27  1  0  0  0
 26 54  1  0  0  0
 27 28  1  0  0  0
 30 55  1  0  0  0
M  CHG  1  30   1
M  END
> <s_m_entry_id>
2

> <s_pdb_PDB_TITLE>
Vandetanib

> <s_m_Source_Path>
/media/4tb_disk1/SijieChen/TKI/pharmacophore_hypothesis-2/ligprep57_mae/active_less_than_50

> <s_m_Source_File>
Vandetanib.mae

> <i_m_Source_File_Index>
1

$$$$
Upadacitinib
                    3D
 Structure written by MMmdl.
 46 49  0  0  1  0            999 V2000
   -3.1575   -1.1798    2.1279 C   0  0  0  0  0  0
   -2.5836    0.1195    1.5444 C   0  0  0  0  0  0
   -1.1955    0.5006    2.1141 C   0  0  1  0  0  0
   -0.0727   -0.4428    1.6484 C   0  0  0  0  0  0
    0.6083    0.2334    0.5417 N   0  0  0  0  0  0
    0.0740    1.5790    0.3721 C   0  0  0  0  0  0
   -0.6870    1.8858    1.6672 C   0  0  1  0  0  0
   -1.7133    2.9772    1.5346 C   0  0  0  0  0  0
   -2.3286    3.5321    0.4272 C   0  0  0  0  0  0
   -3.2508    4.5704    2.0954 C   0  0  0  0  0  0
   -2.3479    3.6950    2.5331 N   0  0  0  0  0  0
   -2.1417    3.6040    3.9128 C   0  0  0  0  0  0
   -1.2677    2.8422    4.7703 C   0  0  0  0  0  0
   -1.5401    3.2102    6.0826 C   0  0  0  0  0  0
   -2.5410    4.1815    6.1406 N   0  0  0  0  0  0
   -2.8635    4.3893    4.8381 C   0  0  0  0  0  0
   -3.8037    5.2799    4.3708 N   0  0  0  0  0  0
   -3.9769    5.3585    3.0254 C   0  0  0  0  0  0
    1.5817   -0.2799   -0.2413 C   0  0  0  0  0  0
    2.0891    0.3428   -1.1746 O   0  0  0  0  0  0
    1.9553   -1.5259    0.0941 N   0  0  0  0  0  0
    3.0082   -2.2961   -0.5595 C   0  0  0  0  0  0
    4.3814   -2.0543    0.0892 C   0  0  0  0  0  0
    5.2889   -2.8274   -0.5055 F   0  0  0  0  0  0
    4.3392   -2.3652    1.3849 F   0  0  0  0  0  0
    4.7536   -0.7813   -0.0442 F   0  0  0  0  0  0
   -3.2829    4.5153    0.7667 N   0  0  0  0  0  0
   -4.1554   -1.3695    1.7320 H   0  0  0  0  0  0
   -3.2399   -1.1200    3.2135 H   0  0  0  0  0  0
   -2.5427   -2.0456    1.8854 H   0  0  0  0  0  0
   -2.5349    0.0459    0.4575 H   0  0  0  0  0  0
   -3.3032    0.9082    1.7639 H   0  0  0  0  0  0
   -1.2802    0.4647    3.1992 H   0  0  0  0  0  0
    0.6437   -0.5961    2.4571 H   0  0  0  0  0  0
   -0.4463   -1.4217    1.3484 H   0  0  0  0  0  0
    0.8492    2.3227    0.1795 H   0  0  0  0  0  0
   -0.5938    1.5561   -0.4899 H   0  0  0  0  0  0
    0.0737    2.2157    2.3735 H   0  0  0  0  0  0
   -2.1687    3.2909   -0.6132 H   0  0  0  0  0  0
   -0.5378    2.1294    4.4267 H   0  0  0  0  0  0
   -1.0932    2.8602    7.0015 H   0  0  0  0  0  0
   -2.9134    4.6153    6.9733 H   0  0  0  0  0  0
   -4.7111    6.0655    2.6688 H   0  0  0  0  0  0
    1.4899   -1.9635    0.8758 H   0  0  0  0  0  0
    2.7466   -3.3517   -0.4805 H   0  0  0  0  0  0
    3.0459   -2.0692   -1.6264 H   0  0  0  0  0  0
  1  2  1  0  0  0
  1 28  1  0  0  0
  1 29  1  0  0  0
  1 30  1  0  0  0
  2  3  1  0  0  0
  2 31  1  0  0  0
  2 32  1  0  0  0
  3  4  1  0  0  0
  3  7  1  0  0  0
  3 33  1  0  0  0
  4  5  1  0  0  0
  4 34  1  0  0  0
  4 35  1  0  0  0
  5  6  1  0  0  0
  5 19  1  0  0  0
  6  7  1  0  0  0
  6 36  1  0  0  0
  6 37  1  0  0  0
  7  8  1  0  0  0
  7 38  1  0  0  0
  8  9  2  0  0  0
  8 11  1  0  0  0
  9 39  1  0  0  0
  9 27  1  0  0  0
 10 11  1  0  0  0
 10 18  1  0  0  0
 10 27  2  0  0  0
 11 12  1  0  0  0
 12 13  1  0  0  0
 12 16  2  0  0  0
 13 14  2  0  0  0
 13 40  1  0  0  0
 14 15  1  0  0  0
 14 41  1  0  0  0
 15 16  1  0  0  0
 15 42  1  0  0  0
 16 17  1  0  0  0
 17 18  2  0  0  0
 18 43  1  0  0  0
 19 20  2  0  0  0
 19 21  1  0  0  0
 21 22  1  0  0  0
 21 44  1  0  0  0
 22 23  1  0  0  0
 22 45  1  0  0  0
 22 46  1  0  0  0
 23 24  1  0  0  0
 23 25  1  0  0  0
 23 26  1  0  0  0
M  END
> <s_m_entry_id>
3

> <i_f3d_flags>
0

> <r_epik_Ionization_Penalty>
  0.0010

> <r_epik_State_Penalty>
  0.0006

> <i_epik_Tot_Q>
0

> <s_pdb_PDB_TITLE>
Upadacitinib

> <s_m_Source_Path>
/media/4tb_disk1/SijieChen/TKI/pharmacophore_hypothesis-2/ligprep57_mae/active_less_than_50

> <s_m_Source_File>
Upadacitinib.mae

> <i_m_Source_File_Index>
1

$$$$
Tucatinib
                    3D
 Structure written by MMmdl.
 60 65  0  0  1  0            999 V2000
   -3.6417   -2.4539    0.6430 C   0  0  0  0  0  0
   -2.6687   -1.2963    0.5286 C   0  0  0  0  0  0
   -1.2822   -1.5461    0.4575 C   0  0  0  0  0  0
   -0.3605   -0.4774    0.3585 C   0  0  0  0  0  0
   -0.8507    0.8427    0.2935 C   0  0  0  0  0  0
   -2.2329    1.0976    0.3604 C   0  0  0  0  0  0
   -3.1473    0.0312    0.4899 C   0  0  0  0  0  0
   -4.4961    0.2750    0.5567 O   0  0  0  0  0  0
   -4.9425    1.0484    1.5969 C   0  0  0  0  0  0
   -4.7613    0.6274    2.9415 C   0  0  0  0  0  0
   -5.2068    1.4082    3.9820 C   0  0  0  0  0  0
   -5.8272    2.5848    3.6949 N   0  0  0  0  0  0
   -6.0451    3.0530    2.3889 C   0  0  0  0  0  0
   -5.5811    2.2382    1.3218 C   0  0  0  0  0  0
   -6.6732    4.2227    2.4598 N   0  0  0  0  0  0
   -6.8125    4.4226    3.8008 C   0  0  0  0  0  0
   -6.3248    3.4754    4.5912 N   0  0  0  0  0  0
    1.0285   -0.6644    0.2698 N   0  0  0  0  0  0
    1.8363   -1.7065    0.7616 C   0  0  0  0  0  0
    3.1926   -1.8176    0.3551 C   0  0  0  0  0  0
    3.7940   -0.9189   -0.5553 C   0  0  0  0  0  0
    5.1420   -1.0870   -0.9464 C   0  0  0  0  0  0
    5.8900   -2.1443   -0.3928 C   0  0  0  0  0  0
    5.2964   -3.0370    0.5194 C   0  0  0  0  0  0
    3.9482   -2.8909    0.9046 C   0  0  0  0  0  0
    3.3823   -3.7508    1.7804 N   0  0  0  0  0  0
    2.1048   -3.5505    2.1044 C   0  0  0  0  0  0
    1.3103   -2.5820    1.6490 N   0  0  0  0  0  0
    5.7647   -0.2006   -1.8311 N   0  0  0  0  0  0
    5.3049   -0.1158   -3.0374 C   0  0  0  0  0  0
    4.2762   -0.8015   -3.6541 N   0  0  0  0  0  0
    3.8636   -0.0866   -4.8333 C   0  0  0  0  0  0
    5.1459    0.6840   -5.1773 C   0  0  0  0  0  0
    5.8277    0.7775   -3.9289 O   0  0  0  0  0  0
    2.7095    0.8795   -4.4954 C   0  0  0  0  0  0
    3.4410   -1.0588   -5.9470 C   0  0  0  0  0  0
   -4.2970   -2.4831   -0.2275 H   0  0  0  0  0  0
   -4.2588   -2.3441    1.5348 H   0  0  0  0  0  0
   -3.1207   -3.4094    0.7085 H   0  0  0  0  0  0
   -0.9386   -2.5691    0.4640 H   0  0  0  0  0  0
   -0.1643    1.6716    0.1975 H   0  0  0  0  0  0
   -2.5912    2.1155    0.3144 H   0  0  0  0  0  0
   -4.2646   -0.3134    3.1563 H   0  0  0  0  0  0
   -5.0922    1.1412    5.0274 H   0  0  0  0  0  0
   -5.7289    2.5647    0.2979 H   0  0  0  0  0  0
   -7.2919    5.3009    4.2078 H   0  0  0  0  0  0
    1.5340    0.0884   -0.1741 H   0  0  0  0  0  0
    3.2293   -0.0950   -0.9667 H   0  0  0  0  0  0
    6.9261   -2.2762   -0.6691 H   0  0  0  0  0  0
    5.8859   -3.8439    0.9297 H   0  0  0  0  0  0
    1.6684   -4.2435    2.8083 H   0  0  0  0  0  0
    5.7782    0.1306   -5.8735 H   0  0  0  0  0  0
    4.9515    1.6678   -5.6060 H   0  0  0  0  0  0
    2.4112    1.4577   -5.3704 H   0  0  0  0  0  0
    2.9895    1.5889   -3.7155 H   0  0  0  0  0  0
    1.8311    0.3370   -4.1444 H   0  0  0  0  0  0
    3.1898   -0.5220   -6.8623 H   0  0  0  0  0  0
    2.5659   -1.6397   -5.6537 H   0  0  0  0  0  0
    4.2382   -1.7638   -6.1866 H   0  0  0  0  0  0
    3.6211   -1.4120   -3.1874 H   0  0  0  0  0  0
  1  2  1  0  0  0
  1 37  1  0  0  0
  1 38  1  0  0  0
  1 39  1  0  0  0
  2  3  1  0  0  0
  2  7  2  0  0  0
  3  4  2  0  0  0
  3 40  1  0  0  0
  4  5  1  0  0  0
  4 18  1  0  0  0
  5  6  2  0  0  0
  5 41  1  0  0  0
  6  7  1  0  0  0
  6 42  1  0  0  0
  7  8  1  0  0  0
  8  9  1  0  0  0
  9 10  1  0  0  0
  9 14  2  0  0  0
 10 11  2  0  0  0
 10 43  1  0  0  0
 11 12  1  0  0  0
 11 44  1  0  0  0
 12 13  1  0  0  0
 12 17  1  0  0  0
 13 14  1  0  0  0
 13 15  2  0  0  0
 14 45  1  0  0  0
 15 16  1  0  0  0
 16 17  2  0  0  0
 16 46  1  0  0  0
 18 19  1  0  0  0
 18 47  1  0  0  0
 19 20  1  0  0  0
 19 28  2  0  0  0
 20 21  1  0  0  0
 20 25  2  0  0  0
 21 22  2  0  0  0
 21 48  1  0  0  0
 22 23  1  0  0  0
 22 29  1  0  0  0
 23 24  2  0  0  0
 23 49  1  0  0  0
 24 25  1  0  0  0
 24 50  1  0  0  0
 25 26  1  0  0  0
 26 27  2  0  0  0
 27 28  1  0  0  0
 27 51  1  0  0  0
 29 30  2  0  0  0
 30 31  1  0  0  0
 30 34  1  0  0  0
 31 32  1  0  0  0
 31 60  1  0  0  0
 32 33  1  0  0  0
 32 35  1  0  0  0
 32 36  1  0  0  0
 33 34  1  0  0  0
 33 52  1  0  0  0
 33 53  1  0  0  0
 35 54  1  0  0  0
 35 55  1  0  0  0
 35 56  1  0  0  0
 36 57  1  0  0  0
 36 58  1  0  0  0
 36 59  1  0  0  0
M  END
> <s_m_entry_id>
4

> <i_f3d_flags>
0

> <r_epik_Ionization_Penalty>
  0.3732

> <r_epik_State_Penalty>
  0.3752

> <i_epik_Tot_Q>
0

> <s_pdb_PDB_TITLE>
Tucatinib

> <s_m_Source_Path>
/media/4tb_disk1/SijieChen/TKI/pharmacophore_hypothesis-2/ligprep57_mae/active_less_than_50

> <s_m_Source_File>
Tucatinib.mae

> <i_m_Source_File_Index>
1

$$$$
Trametinib
                    3D
 Structure written by MMmdl.
 60 64  0  0  1  0            999 V2000
    1.1368   -2.3661    1.5046 C   0  0  0  0  0  0
   -0.2980   -2.2004    0.9974 C   0  0  0  0  0  0
   -0.8890   -1.0031    0.6997 C   0  0  0  0  0  0
   -2.3176   -0.9679    0.4245 C   0  0  0  0  0  0
   -2.9827   -2.1309    0.1660 C   0  0  0  0  0  0
   -2.2988   -3.3630    0.3101 N   0  0  0  0  0  0
   -1.0427   -3.4595    0.8312 C   0  0  0  0  0  0
   -0.5470   -4.5554    1.1040 O   0  0  0  0  0  0
   -3.0224   -4.6013   -0.0434 C   0  0  0  0  0  0
   -4.3324   -2.2091   -0.1877 N   0  0  0  0  0  0
   -4.9169   -1.7485   -1.3783 C   0  0  0  0  0  0
   -4.1612   -1.1140   -2.3923 C   0  0  0  0  0  0
   -4.7869   -0.6648   -3.5706 C   0  0  0  0  0  0
   -6.1705   -0.8514   -3.7487 C   0  0  0  0  0  0
   -6.9271   -1.4905   -2.7483 C   0  0  0  0  0  0
   -6.3022   -1.9394   -1.5686 C   0  0  0  0  0  0
   -7.0413   -2.5551   -0.6142 F   0  0  0  0  0  0
   -7.0997   -0.1830   -5.4983 I   0  0  0  0  0  0
   -2.9959    0.3379    0.5133 C   0  0  0  0  0  0
   -4.2217    0.4600    0.5924 O   0  0  0  0  0  0
   -2.1940    1.4445    0.5453 N   0  0  0  0  0  0
   -0.8333    1.4236    0.6978 C   0  0  0  0  0  0
   -0.2044    2.4706    0.8824 O   0  0  0  0  0  0
   -0.1857    0.2261    0.6177 N   0  0  0  0  0  0
    1.1721    0.2380    0.1596 C   0  0  0  0  0  0
    1.4840   -0.3258   -1.0976 C   0  0  0  0  0  0
    2.8123   -0.3327   -1.5608 C   0  0  0  0  0  0
    3.8361    0.2302   -0.7761 C   0  0  0  0  0  0
    3.5419    0.8146    0.4729 C   0  0  0  0  0  0
    2.2062    0.8050    0.9426 C   0  0  0  0  0  0
    4.6323    1.3476    1.2134 N   0  0  0  0  0  0
    4.6162    2.2783    2.1854 C   0  0  0  0  0  0
    3.6107    2.8612    2.5892 O   0  0  0  0  0  0
    5.9754    2.6257    2.7839 C   0  0  0  0  0  0
   -2.8443    2.7433    0.5646 C   0  0  0  0  0  0
   -2.4731    3.8108   -0.4510 C   0  0  0  0  0  0
   -3.8225    3.1432   -0.5281 C   0  0  0  0  0  0
    1.2386   -3.2166    2.1790 H   0  0  0  0  0  0
    1.4537   -1.5071    2.0926 H   0  0  0  0  0  0
    1.8301   -2.5152    0.6768 H   0  0  0  0  0  0
   -2.3929   -5.4886   -0.1206 H   0  0  0  0  0  0
   -3.5044   -4.5066   -1.0174 H   0  0  0  0  0  0
   -3.7926   -4.8114    0.6999 H   0  0  0  0  0  0
   -4.8733   -2.9211    0.2829 H   0  0  0  0  0  0
   -3.0979   -0.9645   -2.2797 H   0  0  0  0  0  0
   -4.2032   -0.1783   -4.3381 H   0  0  0  0  0  0
   -7.9883   -1.6369   -2.8846 H   0  0  0  0  0  0
    0.7050   -0.7590   -1.7080 H   0  0  0  0  0  0
    3.0463   -0.7713   -2.5194 H   0  0  0  0  0  0
    4.8525    0.2166   -1.1422 H   0  0  0  0  0  0
    1.9548    1.2066    1.9119 H   0  0  0  0  0  0
    5.5461    1.0265    0.9279 H   0  0  0  0  0  0
    6.4954    1.7226    3.1048 H   0  0  0  0  0  0
    5.8625    3.2783    3.6506 H   0  0  0  0  0  0
    6.5944    3.1390    2.0474 H   0  0  0  0  0  0
   -3.0850    3.1140    1.5599 H   0  0  0  0  0  0
   -2.4402    4.8415   -0.1043 H   0  0  0  0  0  0
   -1.7533    3.5585   -1.2276 H   0  0  0  0  0  0
   -3.9854    2.4562   -1.3566 H   0  0  0  0  0  0
   -4.6911    3.7273   -0.2314 H   0  0  0  0  0  0
  1  2  1  0  0  0
  1 38  1  0  0  0
  1 39  1  0  0  0
  1 40  1  0  0  0
  2  3  2  0  0  0
  2  7  1  0  0  0
  3  4  1  0  0  0
  3 24  1  0  0  0
  4  5  2  0  0  0
  4 19  1  0  0  0
  5  6  1  0  0  0
  5 10  1  0  0  0
  6  7  1  0  0  0
  6  9  1  0  0  0
  7  8  2  0  0  0
  9 41  1  0  0  0
  9 42  1  0  0  0
  9 43  1  0  0  0
 10 11  1  0  0  0
 10 44  1  0  0  0
 11 12  1  0  0  0
 11 16  2  0  0  0
 12 13  2  0  0  0
 12 45  1  0  0  0
 13 14  1  0  0  0
 13 46  1  0  0  0
 14 15  2  0  0  0
 14 18  1  0  0  0
 15 16  1  0  0  0
 15 47  1  0  0  0
 16 17  1  0  0  0
 19 20  2  0  0  0
 19 21  1  0  0  0
 21 22  1  0  0  0
 21 35  1  0  0  0
 22 23  2  0  0  0
 22 24  1  0  0  0
 24 25  1  0  0  0
 25 26  1  0  0  0
 25 30  2  0  0  0
 26 27  2  0  0  0
 26 48  1  0  0  0
 27 28  1  0  0  0
 27 49  1  0  0  0
 28 29  2  0  0  0
 28 50  1  0  0  0
 29 30  1  0  0  0
 29 31  1  0  0  0
 30 51  1  0  0  0
 31 32  1  0  0  0
 31 52  1  0  0  0
 32 33  2  0  0  0
 32 34  1  0  0  0
 34 53  1  0  0  0
 34 54  1  0  0  0
 34 55  1  0  0  0
 35 36  1  0  0  0
 35 37  1  0  0  0
 35 56  1  0  0  0
 36 37  1  0  0  0
 36 57  1  0  0  0
 36 58  1  0  0  0
 37 59  1  0  0  0
 37 60  1  0  0  0
M  END
> <s_m_entry_id>
5

> <i_f3d_flags>
0

> <r_lp_tautomer_probability>
1

> <r_epik_Ionization_Penalty>
  0.0000

> <r_epik_State_Penalty>
  0.0000

> <i_epik_Tot_Q>
0

> <s_pdb_PDB_TITLE>
Trametinib

> <s_m_Source_Path>
/media/4tb_disk1/SijieChen/TKI/pharmacophore_hypothesis-2/ligprep57_mae/active_less_than_50

> <s_m_Source_File>
Trametinib.mae

> <i_m_Source_File_Index>
1

$$$$
Tofacitinib
                    3D
 Structure written by MMmdl.
 43 45  0  0  1  0            999 V2000
    0.0012   -0.0513   -2.5549 C   0  0  0  0  0  0
   -0.4873   -0.6666   -1.2325 C   0  0  1  0  0  0
   -0.5250   -2.2067   -1.2695 C   0  0  0  0  0  0
   -1.0157   -2.7735    0.0727 C   0  0  0  0  0  0
   -0.1400   -2.3023    1.1522 N   0  0  0  0  0  0
   -0.1909   -0.8430    1.3272 C   0  0  0  0  0  0
    0.2202   -0.0977    0.0303 C   0  0  1  0  0  0
    1.6784    0.0853   -0.0961 N   0  0  0  0  0  0
    2.5722   -1.0319   -0.3892 C   0  0  0  0  0  0
    2.2889    1.2307    0.4668 C   0  0  0  0  0  0
    3.5658    1.7228    0.0626 C   0  0  0  0  0  0
    4.5741    1.3821   -0.9104 C   0  0  0  0  0  0
    5.5920    2.2906   -0.7702 C   0  0  0  0  0  0
    5.2631    3.1834    0.2341 N   0  0  0  0  0  0
    4.0278    2.8745    0.7637 C   0  0  0  0  0  0
    3.3739    3.5360    1.7590 N   0  0  0  0  0  0
    2.1937    2.9720    2.0214 C   0  0  0  0  0  0
    1.6357    1.9001    1.4529 N   0  0  0  0  0  0
    0.6699   -3.0912    1.9010 C   0  0  0  0  0  0
    1.3740   -2.6470    2.8084 O   0  0  0  0  0  0
    0.7429   -4.5944    1.6143 C   0  0  0  0  0  0
    1.3857   -4.8924    0.3243 C   0  0  0  0  0  0
    1.8908   -5.1263   -0.6902 N   0  0  0  0  0  0
    1.0218   -0.3527   -2.7892 H   0  0  0  0  0  0
   -0.0251    1.0379   -2.5133 H   0  0  0  0  0  0
   -0.6302   -0.3646   -3.3866 H   0  0  0  0  0  0
   -1.5304   -0.3609   -1.1356 H   0  0  0  0  0  0
   -1.1917   -2.5373   -2.0666 H   0  0  0  0  0  0
    0.4557   -2.6114   -1.5157 H   0  0  0  0  0  0
   -2.0333   -2.4329    0.2696 H   0  0  0  0  0  0
   -1.0825   -3.8573    0.0047 H   0  0  0  0  0  0
   -1.2215   -0.5819    1.5710 H   0  0  0  0  0  0
    0.3970   -0.4876    2.1743 H   0  0  0  0  0  0
   -0.1912    0.9082    0.1189 H   0  0  0  0  0  0
    3.4644   -1.0047    0.2373 H   0  0  0  0  0  0
    2.8822   -1.0041   -1.4331 H   0  0  0  0  0  0
    2.0979   -1.9925   -0.2142 H   0  0  0  0  0  0
    4.5345    0.5657   -1.6153 H   0  0  0  0  0  0
    6.5254    2.3760   -1.3071 H   0  0  0  0  0  0
    5.8590    3.9478    0.5178 H   0  0  0  0  0  0
    1.6121    3.4442    2.7992 H   0  0  0  0  0  0
    1.3347   -5.0836    2.3889 H   0  0  0  0  0  0
   -0.2460   -5.0511    1.6496 H   0  0  0  0  0  0
  1  2  1  0  0  0
  1 24  1  0  0  0
  1 25  1  0  0  0
  1 26  1  0  0  0
  2  3  1  0  0  0
  2  7  1  0  0  0
  2 27  1  0  0  0
  3  4  1  0  0  0
  3 28  1  0  0  0
  3 29  1  0  0  0
  4  5  1  0  0  0
  4 30  1  0  0  0
  4 31  1  0  0  0
  5  6  1  0  0  0
  5 19  1  0  0  0
  6  7  1  0  0  0
  6 32  1  0  0  0
  6 33  1  0  0  0
  7  8  1  0  0  0
  7 34  1  0  0  0
  8  9  1  0  0  0
  8 10  1  0  0  0
  9 35  1  0  0  0
  9 36  1  0  0  0
  9 37  1  0  0  0
 10 11  1  0  0  0
 10 18  2  0  0  0
 11 12  1  0  0  0
 11 15  2  0  0  0
 12 13  2  0  0  0
 12 38  1  0  0  0
 13 14  1  0  0  0
 13 39  1  0  0  0
 14 15  1  0  0  0
 14 40  1  0  0  0
 15 16  1  0  0  0
 16 17  2  0  0  0
 17 18  1  0  0  0
 17 41  1  0  0  0
 19 20  2  0  0  0
 19 21  1  0  0  0
 21 22  1  0  0  0
 21 42  1  0  0  0
 21 43  1  0  0  0
 22 23  3  0  0  0
M  END
> <s_m_entry_id>
6

> <i_f3d_flags>
0

> <r_lp_tautomer_probability>
0.999998369746258

> <r_epik_Ionization_Penalty>
  0.0156

> <r_epik_State_Penalty>
  0.0115

> <i_epik_Tot_Q>
0

> <s_pdb_PDB_TITLE>
Tofacitinib

> <s_m_Source_Path>
/media/4tb_disk1/SijieChen/TKI/pharmacophore_hypothesis-2/ligprep57_mae/active_less_than_50

> <s_m_Source_File>
Tofacitinib.mae

> <i_m_Source_File_Index>
1

$$$$
Tivozanib
                    3D
 Structure written by MMmdl.
 51 54  0  0  1  0            999 V2000
   -5.8470   10.8385   -2.7973 C   0  0  0  0  0  0
   -5.1722    9.5299   -2.5654 C   0  0  0  0  0  0
   -4.6591    8.9328   -1.4483 C   0  0  0  0  0  0
   -4.1678    7.6955   -1.9435 C   0  0  0  0  0  0
   -4.3635    7.5506   -3.2451 N   0  0  0  0  0  0
   -5.0095    8.7246   -3.6501 O   0  0  0  0  0  0
   -3.5441    6.7608   -1.0776 N   0  0  0  0  0  0
   -3.0224    5.5643   -1.3991 C   0  0  0  0  0  0
   -3.0293    5.0801   -2.5309 O   0  0  0  0  0  0
   -2.5139    4.9603   -0.3106 N   0  0  0  0  0  0
   -1.8601    3.6997   -0.2190 C   0  0  0  0  0  0
   -1.1472    3.1267   -1.3006 C   0  0  0  0  0  0
   -0.4964    1.8882   -1.1493 C   0  0  0  0  0  0
   -0.5346    1.2134    0.0873 C   0  0  0  0  0  0
   -1.2330    1.7825    1.1689 C   0  0  0  0  0  0
   -1.8867    3.0219    1.0227 C   0  0  0  0  0  0
   -2.7216    3.6897    2.3822 Cl  0  0  0  0  0  0
    0.0921    0.0054    0.2460 O   0  0  0  0  0  0
    1.4630    0.0093    0.1982 C   0  0  0  0  0  0
    2.2066    0.5902    1.2444 C   0  0  0  0  0  0
    3.6099    0.5679    1.1605 C   0  0  0  0  0  0
    4.2796    0.0129    0.1296 N   0  0  0  0  0  0
    3.5793   -0.5547   -0.8794 C   0  0  0  0  0  0
    2.1592   -0.5786   -0.8842 C   0  0  0  0  0  0
    1.4599   -1.1760   -1.9535 C   0  0  0  0  0  0
    2.1576   -1.7591   -3.0387 C   0  0  0  0  0  0
    3.5693   -1.7474   -3.0404 C   0  0  0  0  0  0
    4.2627   -1.1442   -1.9617 C   0  0  0  0  0  0
    4.1981   -2.3369   -4.1181 O   0  0  0  0  0  0
    5.6179   -2.3600   -4.1417 C   0  0  0  0  0  0
    1.5349   -2.3518   -4.1179 O   0  0  0  0  0  0
    0.1156   -2.3417   -4.1679 C   0  0  0  0  0  0
   -5.5667   11.5615   -2.0311 H   0  0  0  0  0  0
   -6.9305   10.7232   -2.7741 H   0  0  0  0  0  0
   -5.5711   11.2521   -3.7674 H   0  0  0  0  0  0
   -4.6395    9.3215   -0.4411 H   0  0  0  0  0  0
   -3.4796    7.0374   -0.1092 H   0  0  0  0  0  0
   -2.6727    5.4264    0.5708 H   0  0  0  0  0  0
   -1.0733    3.6262   -2.2540 H   0  0  0  0  0  0
    0.0389    1.4614   -1.9846 H   0  0  0  0  0  0
   -1.2618    1.2670    2.1178 H   0  0  0  0  0  0
    1.7129    1.0435    2.0913 H   0  0  0  0  0  0
    4.2118    1.0059    1.9430 H   0  0  0  0  0  0
    0.3812   -1.1766   -1.9284 H   0  0  0  0  0  0
    5.3414   -1.1201   -1.9416 H   0  0  0  0  0  0
    5.9543   -2.8709   -5.0436 H   0  0  0  0  0  0
    6.0229   -2.9027   -3.2864 H   0  0  0  0  0  0
    6.0328   -1.3513   -4.1604 H   0  0  0  0  0  0
   -0.2139   -2.8238   -5.0882 H   0  0  0  0  0  0
   -0.2770   -1.3239   -4.1706 H   0  0  0  0  0  0
   -0.3164   -2.8950   -3.3330 H   0  0  0  0  0  0
  1  2  1  0  0  0
  1 33  1  0  0  0
  1 34  1  0  0  0
  1 35  1  0  0  0
  2  3  2  0  0  0
  2  6  1  0  0  0
  3  4  1  0  0  0
  3 36  1  0  0  0
  4  5  2  0  0  0
  4  7  1  0  0  0
  5  6  1  0  0  0
  7  8  1  0  0  0
  7 37  1  0  0  0
  8  9  2  0  0  0
  8 10  1  0  0  0
 10 11  1  0  0  0
 10 38  1  0  0  0
 11 12  1  0  0  0
 11 16  2  0  0  0
 12 13  2  0  0  0
 12 39  1  0  0  0
 13 14  1  0  0  0
 13 40  1  0  0  0
 14 15  2  0  0  0
 14 18  1  0  0  0
 15 16  1  0  0  0
 15 41  1  0  0  0
 16 17  1  0  0  0
 18 19  1  0  0  0
 19 20  2  0  0  0
 19 24  1  0  0  0
 20 21  1  0  0  0
 20 42  1  0  0  0
 21 22  2  0  0  0
 21 43  1  0  0  0
 22 23  1  0  0  0
 23 24  1  0  0  0
 23 28  2  0  0  0
 24 25  2  0  0  0
 25 26  1  0  0  0
 25 44  1  0  0  0
 26 27  2  0  0  0
 26 31  1  0  0  0
 27 28  1  0  0  0
 27 29  1  0  0  0
 28 45  1  0  0  0
 29 30  1  0  0  0
 30 46  1  0  0  0
 30 47  1  0  0  0
 30 48  1  0  0  0
 31 32  1  0  0  0
 32 49  1  0  0  0
 32 50  1  0  0  0
 32 51  1  0  0  0
M  END
> <s_m_entry_id>
7

> <i_f3d_flags>
0

> <r_lp_tautomer_probability>
1

> <r_epik_Ionization_Penalty>
  0.0001

> <r_epik_State_Penalty>
  0.0000

> <i_epik_Tot_Q>
0

> <s_pdb_PDB_TITLE>
Tivozanib

> <s_m_Source_Path>
/media/4tb_disk1/SijieChen/TKI/pharmacophore_hypothesis-2/ligprep57_mae/active_less_than_50

> <s_m_Source_File>
Tivozanib.mae

> <i_m_Source_File_Index>
1

$$$$
Sunitinib
                    3D
 Structure written by MMmdl.
 57 59  0  0  1  0            999 V2000
   -0.8197    3.3554   -1.6706 C   0  0  0  0  0  0
   -0.9868    1.8536   -1.4001 C   0  0  0  0  0  0
   -1.6503    1.7730    0.9803 C   0  0  0  0  0  0
   -1.0727    2.0749    2.3705 C   0  0  0  0  0  0
   -0.0695    0.0992    0.0767 C   0  0  0  0  0  0
    1.4074    0.0099   -0.3519 C   0  0  0  0  0  0
    1.9096   -1.3560   -0.2709 N   0  0  0  0  0  0
    1.6696   -2.3200   -1.1745 C   0  0  0  0  0  0
    0.9459   -2.1345   -2.1528 O   0  0  0  0  0  0
    2.2623   -3.6536   -0.9075 C   0  0  0  0  0  0
    1.7095   -4.9515   -1.1707 C   0  0  0  0  0  0
    2.6398   -5.8839   -0.7806 C   0  0  0  0  0  0
    3.7268   -5.1795   -0.3187 N   0  0  0  0  0  0
    3.5266   -3.8221   -0.3955 C   0  0  0  0  0  0
    4.6071   -2.8793    0.0306 C   0  0  0  0  0  0
    2.6199   -7.3223   -0.8196 C   0  0  0  0  0  0
    3.5403   -8.3056   -0.6785 C   0  0  0  0  0  0
    3.2744   -9.7419   -0.7198 C   0  0  0  0  0  0
    2.0834  -10.4700   -0.9011 C   0  0  0  0  0  0
    2.1586  -11.8822   -0.8875 C   0  0  0  0  0  0
    3.4008  -12.5380   -0.6974 C   0  0  0  0  0  0
    4.5885  -11.7932   -0.5184 C   0  0  0  0  0  0
    4.4812  -10.3931   -0.5362 C   0  0  0  0  0  0
    5.4824   -9.4335   -0.3887 N   0  0  0  0  0  0
    4.9915   -8.1836   -0.4723 C   0  0  0  0  0  0
    5.6897   -7.1755   -0.3976 O   0  0  0  0  0  0
    1.0330  -12.6150   -1.0580 F   0  0  0  0  0  0
    0.3490   -5.2260   -1.7670 C   0  0  0  0  0  0
   -0.5844    1.4899   -0.0159 N   0  3  0  0  0  0
   -1.0799    3.5904   -2.7029 H   0  0  0  0  0  0
    0.2122    3.6698   -1.5113 H   0  0  0  0  0  0
   -1.4573    3.9619   -1.0280 H   0  0  0  0  0  0
   -2.0144    1.5378   -1.5865 H   0  0  0  0  0  0
   -0.3733    1.3176   -2.1243 H   0  0  0  0  0  0
   -2.3523    0.9388    1.0243 H   0  0  0  0  0  0
   -2.2327    2.6405    0.6700 H   0  0  0  0  0  0
   -1.8706    2.3210    3.0718 H   0  0  0  0  0  0
   -0.3913    2.9255    2.3360 H   0  0  0  0  0  0
   -0.5277    1.2263    2.7831 H   0  0  0  0  0  0
   -0.6992   -0.5624   -0.5207 H   0  0  0  0  0  0
   -0.1441   -0.2641    1.1019 H   0  0  0  0  0  0
    1.5549    0.3890   -1.3639 H   0  0  0  0  0  0
    2.0191    0.6330    0.3012 H   0  0  0  0  0  0
    2.4939   -1.5870    0.5200 H   0  0  0  0  0  0
    4.5778   -5.6115    0.0145 H   0  0  0  0  0  0
    4.7420   -2.0842   -0.7031 H   0  0  0  0  0  0
    5.5620   -3.3946    0.1395 H   0  0  0  0  0  0
    4.3638   -2.4202    0.9888 H   0  0  0  0  0  0
    1.6183   -7.6962   -0.9623 H   0  0  0  0  0  0
    1.1369   -9.9708   -1.0461 H   0  0  0  0  0  0
    3.4405  -13.6173   -0.6898 H   0  0  0  0  0  0
    5.5403  -12.2825   -0.3737 H   0  0  0  0  0  0
    6.4540   -9.6729   -0.2533 H   0  0  0  0  0  0
    0.0727   -6.2766   -1.6905 H   0  0  0  0  0  0
    0.3398   -4.9474   -2.8207 H   0  0  0  0  0  0
   -0.4129   -4.6410   -1.2516 H   0  0  0  0  0  0
    0.1902    2.0936    0.2201 H   0  0  0  0  0  0
  1  2  1  0  0  0
  1 30  1  0  0  0
  1 31  1  0  0  0
  1 32  1  0  0  0
  2 33  1  0  0  0
  2 34  1  0  0  0
  2 29  1  0  0  0
  3  4  1  0  0  0
  3 35  1  0  0  0
  3 36  1  0  0  0
  3 29  1  0  0  0
  4 37  1  0  0  0
  4 38  1  0  0  0
  4 39  1  0  0  0
  5  6  1  0  0  0
  5 40  1  0  0  0
  5 41  1  0  0  0
  5 29  1  0  0  0
  6  7  1  0  0  0
  6 42  1  0  0  0
  6 43  1  0  0  0
  7  8  1  0  0  0
  7 44  1  0  0  0
  8  9  2  0  0  0
  8 10  1  0  0  0
 10 11  1  0  0  0
 10 14  2  0  0  0
 11 12  2  0  0  0
 11 28  1  0  0  0
 12 13  1  0  0  0
 12 16  1  0  0  0
 13 14  1  0  0  0
 13 45  1  0  0  0
 14 15  1  0  0  0
 15 46  1  0  0  0
 15 47  1  0  0  0
 15 48  1  0  0  0
 16 17  2  0  0  0
 16 49  1  0  0  0
 17 18  1  0  0  0
 17 25  1  0  0  0
 18 19  2  0  0  0
 18 23  1  0  0  0
 19 20  1  0  0  0
 19 50  1  0  0  0
 20 21  2  0  0  0
 20 27  1  0  0  0
 21 22  1  0  0  0
 21 51  1  0  0  0
 22 23  2  0  0  0
 22 52  1  0  0  0
 23 24  1  0  0  0
 24 25  1  0  0  0
 24 53  1  0  0  0
 25 26  2  0  0  0
 28 54  1  0  0  0
 28 55  1  0  0  0
 28 56  1  0  0  0
 29 57  1  0  0  0
M  CHG  1  29   1
M  END
> <s_m_entry_id>
8

> <i_f3d_flags>
0

> <r_epik_Ionization_Penalty>
  0.0057

> <r_epik_State_Penalty>
  0.0042

> <i_epik_Tot_Q>
1

> <s_pdb_PDB_TITLE>
Sunitinib

> <s_m_Source_Path>
/media/4tb_disk1/SijieChen/TKI/pharmacophore_hypothesis-2/ligprep57_mae/active_less_than_50

> <s_m_Source_File>
Sunitinib.mae

> <i_m_Source_File_Index>
1

$$$$
Sorafenib
                    3D
 Structure written by MMmdl.
 48 50  0  0  1  0            999 V2000
   -0.8269    6.8632    2.7229 C   0  0  0  0  0  0
   -1.0194    5.7809    1.7702 N   0  0  0  0  0  0
   -0.6865    4.5001    1.9986 C   0  0  0  0  0  0
   -0.1681    4.1183    3.0488 O   0  0  0  0  0  0
   -0.9490    3.5387    0.8689 C   0  0  0  0  0  0
   -0.3561    2.2547    0.8862 C   0  0  0  0  0  0
   -0.6116    1.3657   -0.1802 C   0  0  0  0  0  0
   -1.4641    1.7863   -1.2178 C   0  0  0  0  0  0
   -2.0160    3.0790   -1.1485 C   0  0  0  0  0  0
   -1.7691    3.9365   -0.1358 N   0  0  0  0  0  0
   -0.0662    0.1077   -0.2159 O   0  0  0  0  0  0
    1.2961    0.0081   -0.1015 C   0  0  0  0  0  0
    2.1466    0.5511   -1.0867 C   0  0  0  0  0  0
    3.5440    0.4420   -0.9517 C   0  0  0  0  0  0
    4.1070   -0.2228    0.1578 C   0  0  0  0  0  0
    3.2493   -0.7610    1.1480 C   0  0  0  0  0  0
    1.8521   -0.6507    1.0119 C   0  0  0  0  0  0
    5.5257   -0.2735    0.2350 N   0  0  0  0  0  0
    6.3001   -1.1419    0.9094 C   0  0  0  0  0  0
    5.8809   -2.1079    1.5466 O   0  0  0  0  0  0
    7.6005   -0.8384    0.7501 N   0  0  0  0  0  0
    8.7354   -1.4906    1.3048 C   0  0  0  0  0  0
    8.6996   -2.2206    2.5153 C   0  0  0  0  0  0
    9.8710   -2.8212    3.0105 C   0  0  0  0  0  0
   11.0888   -2.6946    2.3148 C   0  0  0  0  0  0
   11.1434   -1.9522    1.1097 C   0  0  0  0  0  0
    9.9604   -1.3514    0.6209 C   0  0  0  0  0  0
   12.4547   -1.7955    0.3441 C   0  0  0  0  0  0
   12.2989   -1.0694   -0.7637 F   0  0  0  0  0  0
   13.3590   -1.1859    1.1108 F   0  0  0  0  0  0
   12.9209   -2.9925   -0.0124 F   0  0  0  0  0  0
   12.4960   -3.4555    2.9699 Cl  0  0  0  0  0  0
   -1.1504    7.8067    2.2833 H   0  0  0  0  0  0
    0.2243    6.9579    2.9981 H   0  0  0  0  0  0
   -1.4097    6.6902    3.6282 H   0  0  0  0  0  0
   -1.4341    6.0120    0.8787 H   0  0  0  0  0  0
    0.2885    1.9514    1.6988 H   0  0  0  0  0  0
   -1.6892    1.1335   -2.0481 H   0  0  0  0  0  0
   -2.6746    3.4341   -1.9273 H   0  0  0  0  0  0
    1.7281    1.0560   -1.9449 H   0  0  0  0  0  0
    4.1839    0.8687   -1.7105 H   0  0  0  0  0  0
    3.6385   -1.2496    2.0276 H   0  0  0  0  0  0
    1.2050   -1.0641    1.7712 H   0  0  0  0  0  0
    6.0123    0.4068   -0.3300 H   0  0  0  0  0  0
    7.8050   -0.0839    0.1114 H   0  0  0  0  0  0
    7.7897   -2.3221    3.0867 H   0  0  0  0  0  0
    9.8346   -3.3793    3.9345 H   0  0  0  0  0  0
    9.9824   -0.7801   -0.2955 H   0  0  0  0  0  0
  1  2  1  0  0  0
  1 33  1  0  0  0
  1 34  1  0  0  0
  1 35  1  0  0  0
  2  3  1  0  0  0
  2 36  1  0  0  0
  3  4  2  0  0  0
  3  5  1  0  0  0
  5  6  1  0  0  0
  5 10  2  0  0  0
  6  7  2  0  0  0
  6 37  1  0  0  0
  7  8  1  0  0  0
  7 11  1  0  0  0
  8  9  2  0  0  0
  8 38  1  0  0  0
  9 10  1  0  0  0
  9 39  1  0  0  0
 11 12  1  0  0  0
 12 13  1  0  0  0
 12 17  2  0  0  0
 13 14  2  0  0  0
 13 40  1  0  0  0
 14 15  1  0  0  0
 14 41  1  0  0  0
 15 16  2  0  0  0
 15 18  1  0  0  0
 16 17  1  0  0  0
 16 42  1  0  0  0
 17 43  1  0  0  0
 18 19  1  0  0  0
 18 44  1  0  0  0
 19 20  2  0  0  0
 19 21  1  0  0  0
 21 22  1  0  0  0
 21 45  1  0  0  0
 22 23  1  0  0  0
 22 27  2  0  0  0
 23 24  2  0  0  0
 23 46  1  0  0  0
 24 25  1  0  0  0
 24 47  1  0  0  0
 25 26  2  0  0  0
 25 32  1  0  0  0
 26 27  1  0  0  0
 26 28  1  0  0  0
 27 48  1  0  0  0
 28 29  1  0  0  0
 28 30  1  0  0  0
 28 31  1  0  0  0
M  END
> <s_m_entry_id>
9

> <i_f3d_flags>
0

> <r_lp_tautomer_probability>
1

> <r_epik_Ionization_Penalty>
  0.0154

> <r_epik_State_Penalty>
  0.0121

> <i_epik_Tot_Q>
0

> <s_pdb_PDB_TITLE>
Sorafenib

> <s_m_Source_Path>
/media/4tb_disk1/SijieChen/TKI/pharmacophore_hypothesis-2/ligprep57_mae/active_less_than_50

> <s_m_Source_File>
Sorafenib.mae

> <i_m_Source_File_Index>
1

$$$$
Selpercatinib
                    3D
 Structure written by MMmdl.
 71 76  0  0  1  0            999 V2000
  -10.3880   -1.5129   -5.0226 C   0  0  0  0  0  0
  -10.6108   -1.8512   -3.6584 O   0  0  0  0  0  0
  -10.0661   -1.0402   -2.6842 C   0  0  0  0  0  0
  -10.2879   -1.3702   -1.3317 C   0  0  0  0  0  0
   -9.7392   -0.5450   -0.3322 C   0  0  0  0  0  0
   -8.9841    0.5813   -0.7179 C   0  0  0  0  0  0
   -8.3785    1.5075    0.3201 C   0  0  0  0  0  0
   -6.5883   -0.0131    1.3020 C   0  0  1  0  0  0
   -5.1726   -0.4555    0.8929 C   0  0  0  0  0  0
   -4.2330    0.6748    0.9721 N   0  0  0  0  0  0
   -4.7504    2.0182    1.2868 C   0  0  0  0  0  0
   -6.2523    1.9578    1.6117 C   0  0  2  0  0  0
   -6.7021    0.8459    2.5653 C   0  0  0  0  0  0
   -2.8548    0.4848    0.7268 C   0  0  0  0  0  0
   -2.3360   -0.7804    0.3584 C   0  0  0  0  0  0
   -0.9527   -0.9150    0.1349 C   0  0  0  0  0  0
   -0.1132    0.2074    0.2791 C   0  0  0  0  0  0
   -0.7213    1.4236    0.6491 C   0  0  0  0  0  0
    1.3357    0.1126    0.0525 C   0  0  0  0  0  0
    2.1944    0.1092    1.1312 C   0  0  0  0  0  0
    3.5990    0.0036    0.9728 C   0  0  0  0  0  0
    4.1293   -0.0938   -0.3006 C   0  0  0  0  0  0
    3.2929   -0.0831   -1.3738 N   0  0  0  0  0  0
    3.6963   -0.1690   -2.6890 N   0  0  0  0  0  0
    2.5773   -0.1128   -3.3760 C   0  0  0  0  0  0
    1.4354    0.0050   -2.5544 C   0  0  0  0  0  0
    0.0928    0.0995   -3.0115 C   0  0  0  0  0  0
   -1.0023    0.1773   -3.3765 N   0  0  0  0  0  0
    1.8875    0.0204   -1.2600 C   0  0  0  0  0  0
    4.3548    0.0034    2.1255 O   0  0  0  0  0  0
    5.7664   -0.1406    2.0118 C   0  0  0  0  0  0
    6.4211   -0.1589    3.4088 C   0  0  0  0  0  0
    5.6719   -1.0619    4.4052 C   0  0  0  0  0  0
    7.8941   -0.5874    3.2984 C   0  0  0  0  0  0
    6.4299    1.1648    3.9054 O   0  0  0  0  0  0
   -8.8171    0.8296   -2.0962 C   0  0  0  0  0  0
   -9.3400    0.0427   -3.0600 N   0  0  0  0  0  0
   -6.9414    1.2039    0.5559 N   0  3  2  0  0  0
   -2.0466    1.5633    0.8635 N   0  0  0  0  0  0
  -10.8837   -2.2441   -5.6608 H   0  0  0  0  0  0
   -9.3251   -1.5267   -5.2678 H   0  0  0  0  0  0
  -10.7989   -0.5316   -5.2634 H   0  0  0  0  0  0
  -10.8714   -2.2397   -1.0672 H   0  0  0  0  0  0
   -9.8968   -0.7752    0.7113 H   0  0  0  0  0  0
   -8.4595    2.5335   -0.0406 H   0  0  0  0  0  0
   -8.9698    1.4588    1.2342 H   0  0  0  0  0  0
   -7.3383   -0.8020    1.2434 H   0  0  0  0  0  0
   -4.8308   -1.2615    1.5430 H   0  0  0  0  0  0
   -5.1767   -0.8419   -0.1270 H   0  0  0  0  0  0
   -4.2019    2.4348    2.1326 H   0  0  0  0  0  0
   -4.5714    2.6742    0.4338 H   0  0  0  0  0  0
   -6.7079    2.9266    1.8213 H   0  0  0  0  0  0
   -7.7135    0.9552    2.9602 H   0  0  0  0  0  0
   -5.9895    0.6000    3.3537 H   0  0  0  0  0  0
   -2.9664   -1.6487    0.2418 H   0  0  0  0  0  0
   -0.5405   -1.8723   -0.1487 H   0  0  0  0  0  0
   -0.1254    2.3158    0.7738 H   0  0  0  0  0  0
    1.7821    0.1814    2.1329 H   0  0  0  0  0  0
    5.1880   -0.1774   -0.5216 H   0  0  0  0  0  0
    2.6095   -0.1549   -4.4550 H   0  0  0  0  0  0
    5.9786   -1.0850    1.5073 H   0  0  0  0  0  0
    6.1917    0.6604    1.4041 H   0  0  0  0  0  0
    5.6241   -2.0897    4.0440 H   0  0  0  0  0  0
    4.6486   -0.7220    4.5686 H   0  0  0  0  0  0
    6.1666   -1.0768    5.3770 H   0  0  0  0  0  0
    7.9799   -1.6080    2.9238 H   0  0  0  0  0  0
    8.3950   -0.5506    4.2666 H   0  0  0  0  0  0
    8.4471    0.0601    2.6166 H   0  0  0  0  0  0
    6.8470    1.1652    4.7533 H   0  0  0  0  0  0
   -8.2472    1.6821   -2.4360 H   0  0  0  0  0  0
   -6.4300    1.2582   -0.3136 H   0  0  0  0  0  0
  1  2  1  0  0  0
  1 40  1  0  0  0
  1 41  1  0  0  0
  1 42  1  0  0  0
  2  3  1  0  0  0
  3  4  1  0  0  0
  3 37  2  0  0  0
  4  5  2  0  0  0
  4 43  1  0  0  0
  5  6  1  0  0  0
  5 44  1  0  0  0
  6  7  1  0  0  0
  6 36  2  0  0  0
  7 45  1  0  0  0
  7 46  1  0  0  0
  7 38  1  0  0  0
  8  9  1  0  0  0
  8 13  1  0  0  0
  8 47  1  0  0  0
  8 38  1  0  0  0
  9 10  1  0  0  0
  9 48  1  0  0  0
  9 49  1  0  0  0
 10 11  1  0  0  0
 10 14  1  0  0  0
 11 12  1  0  0  0
 11 50  1  0  0  0
 11 51  1  0  0  0
 12 13  1  0  0  0
 12 52  1  0  0  0
 12 38  1  0  0  0
 13 53  1  0  0  0
 13 54  1  0  0  0
 14 15  1  0  0  0
 14 39  2  0  0  0
 15 16  2  0  0  0
 15 55  1  0  0  0
 16 17  1  0  0  0
 16 56  1  0  0  0
 17 18  2  0  0  0
 17 19  1  0  0  0
 18 57  1  0  0  0
 18 39  1  0  0  0
 19 20  2  0  0  0
 19 29  1  0  0  0
 20 21  1  0  0  0
 20 58  1  0  0  0
 21 22  2  0  0  0
 21 30  1  0  0  0
 22 23  1  0  0  0
 22 59  1  0  0  0
 23 24  1  0  0  0
 23 29  1  0  0  0
 24 25  2  0  0  0
 25 26  1  0  0  0
 25 60  1  0  0  0
 26 27  1  0  0  0
 26 29  2  0  0  0
 27 28  3  0  0  0
 30 31  1  0  0  0
 31 32  1  0  0  0
 31 61  1  0  0  0
 31 62  1  0  0  0
 32 33  1  0  0  0
 32 34  1  0  0  0
 32 35  1  0  0  0
 33 63  1  0  0  0
 33 64  1  0  0  0
 33 65  1  0  0  0
 34 66  1  0  0  0
 34 67  1  0  0  0
 34 68  1  0  0  0
 35 69  1  0  0  0
 36 37  1  0  0  0
 36 70  1  0  0  0
 38 71  1  0  0  0
M  CHG  1  38   1
M  END
> <s_m_entry_id>
10

> <i_f3d_flags>
0

> <r_lp_tautomer_probability>
1

> <r_epik_Ionization_Penalty>
  0.0847

> <r_epik_State_Penalty>
  0.0305

> <i_epik_Tot_Q>
1

> <s_pdb_PDB_TITLE>
Selpercatinib

> <s_m_Source_Path>
/media/4tb_disk1/SijieChen/TKI/pharmacophore_hypothesis-2/ligprep57_mae/active_less_than_50

> <s_m_Source_File>
Selpercatinib.mae

> <i_m_Source_File_Index>
1

$$$$
Ruxolitinib
                    3D
 Structure written by MMmdl.
 41 44  0  0  1  0            999 V2000
   -5.1455    0.5331    0.0316 C   0  0  0  0  0  0
   -6.5046    0.4063    0.1693 C   0  0  0  0  0  0
   -6.8198   -0.9326    0.3215 N   0  0  0  0  0  0
   -5.6748   -1.7006    0.2884 C   0  0  0  0  0  0
   -4.5915   -0.7952    0.0969 C   0  0  0  0  0  0
   -3.3043   -1.3976    0.0304 C   0  0  0  0  0  0
   -3.2121   -2.7446    0.1634 N   0  0  0  0  0  0
   -4.3203   -3.4701    0.3405 C   0  0  0  0  0  0
   -5.5873   -3.0549    0.4146 N   0  0  0  0  0  0
   -2.0401   -0.6666   -0.1737 C   0  0  0  0  0  0
   -1.8658    0.6401   -0.7073 C   0  0  0  0  0  0
   -0.5889    0.9872   -0.7459 N   0  0  0  0  0  0
    0.0792   -0.0798   -0.2467 N   0  0  0  0  0  0
   -0.7777   -1.1024    0.1097 C   0  0  0  0  0  0
    1.5311   -0.0367   -0.1394 C   0  0  2  0  0  0
    2.1649   -1.1693   -0.9656 C   0  0  0  0  0  0
    1.8226   -1.1052   -2.3953 C   0  0  0  0  0  0
    1.5528   -1.0551   -3.5191 N   0  0  0  0  0  0
    1.9809   -0.0749    1.3392 C   0  0  0  0  0  0
    3.4676    0.2284    1.5530 C   0  0  0  0  0  0
    3.5927    0.6262    3.0284 C   0  0  0  0  0  0
    2.1895    1.0543    3.4832 C   0  0  0  0  0  0
    1.2885    0.9464    2.2497 C   0  0  0  0  0  0
   -4.5974    1.4537   -0.0974 H   0  0  0  0  0  0
   -7.2757    1.1629    0.1741 H   0  0  0  0  0  0
   -7.7628   -1.2728    0.4424 H   0  0  0  0  0  0
   -4.1708   -4.5353    0.4360 H   0  0  0  0  0  0
   -2.6032    1.3379   -1.0726 H   0  0  0  0  0  0
   -0.4229   -2.0324    0.5289 H   0  0  0  0  0  0
    1.8645    0.9109   -0.5673 H   0  0  0  0  0  0
    3.2518   -1.1302   -0.8969 H   0  0  0  0  0  0
    1.8561   -2.1447   -0.5889 H   0  0  0  0  0  0
    1.7768   -1.0683    1.7429 H   0  0  0  0  0  0
    4.1083   -0.6168    1.3000 H   0  0  0  0  0  0
    3.7697    1.0688    0.9264 H   0  0  0  0  0  0
    3.9293   -0.2246    3.6220 H   0  0  0  0  0  0
    4.3235    1.4248    3.1606 H   0  0  0  0  0  0
    1.8355    0.3799    4.2638 H   0  0  0  0  0  0
    2.1817    2.0634    3.8963 H   0  0  0  0  0  0
    1.2397    1.9145    1.7489 H   0  0  0  0  0  0
    0.2689    0.6581    2.5085 H   0  0  0  0  0  0
  1  2  2  0  0  0
  1  5  1  0  0  0
  1 24  1  0  0  0
  2  3  1  0  0  0
  2 25  1  0  0  0
  3  4  1  0  0  0
  3 26  1  0  0  0
  4  5  1  0  0  0
  4  9  2  0  0  0
  5  6  2  0  0  0
  6  7  1  0  0  0
  6 10  1  0  0  0
  7  8  2  0  0  0
  8  9  1  0  0  0
  8 27  1  0  0  0
 10 11  1  0  0  0
 10 14  2  0  0  0
 11 12  2  0  0  0
 11 28  1  0  0  0
 12 13  1  0  0  0
 13 14  1  0  0  0
 13 15  1  0  0  0
 14 29  1  0  0  0
 15 16  1  0  0  0
 15 19  1  0  0  0
 15 30  1  0  0  0
 16 17  1  0  0  0
 16 31  1  0  0  0
 16 32  1  0  0  0
 17 18  3  0  0  0
 19 20  1  0  0  0
 19 23  1  0  0  0
 19 33  1  0  0  0
 20 21  1  0  0  0
 20 34  1  0  0  0
 20 35  1  0  0  0
 21 22  1  0  0  0
 21 36  1  0  0  0
 21 37  1  0  0  0
 22 23  1  0  0  0
 22 38  1  0  0  0
 22 39  1  0  0  0
 23 40  1  0  0  0
 23 41  1  0  0  0
M  END
> <s_m_entry_id>
11

> <i_f3d_flags>
0

> <r_lp_tautomer_probability>
1

> <r_epik_Ionization_Penalty>
  0.0000

> <r_epik_State_Penalty>
  0.0000

> <i_epik_Tot_Q>
0

> <s_pdb_PDB_TITLE>
Ruxolitinib

> <s_m_Source_Path>
/media/4tb_disk1/SijieChen/TKI/pharmacophore_hypothesis-2/ligprep57_mae/active_less_than_50

> <s_m_Source_File>
Ruxolitinib.mae

> <i_m_Source_File_Index>
1

$$$$
Ripretinib
                    3D
 Structure written by MMmdl.
 54 57  0  0  1  0            999 V2000
   -3.2548   -2.3631    2.6649 C   0  0  0  0  0  0
   -2.8846   -2.5117    1.1814 C   0  0  0  0  0  0
   -2.1319   -1.3406    0.6886 N   0  0  0  0  0  0
   -2.8593   -0.1953    0.2029 C   0  0  0  0  0  0
   -4.2731   -0.0926    0.2360 C   0  0  0  0  0  0
   -4.8937    1.0713   -0.2670 C   0  0  0  0  0  0
   -2.8473    2.0193   -0.8043 C   0  0  0  0  0  0
   -2.1452    0.8971   -0.3245 C   0  0  0  0  0  0
   -0.6944    0.8217   -0.3292 C   0  0  0  0  0  0
   -0.0294   -0.2419    0.1625 C   0  0  0  0  0  0
   -0.7625   -1.3809    0.7412 C   0  0  0  0  0  0
   -0.1639   -2.3271    1.2581 O   0  0  0  0  0  0
    1.4431   -0.2205    0.1699 C   0  0  0  0  0  0
    2.1419   -1.0607   -0.7229 C   0  0  0  0  0  0
    3.5577   -1.0793   -0.7299 C   0  0  0  0  0  0
    4.2603   -0.2298    0.1508 C   0  0  0  0  0  0
    3.5635    0.6014    1.0480 C   0  0  0  0  0  0
    2.1563    0.6054    1.0690 C   0  0  0  0  0  0
    1.2549    1.7231    2.3243 Br  0  0  0  0  0  0
    5.6154   -0.2152    0.1452 F   0  0  0  0  0  0
    4.3293   -1.8852   -1.6121 N   0  0  0  0  0  0
    3.9829   -3.0260   -2.2340 C   0  0  0  0  0  0
    2.8933   -3.5861   -2.1173 O   0  0  0  0  0  0
    5.0087   -3.4926   -2.9678 N   0  0  0  0  0  0
    5.0599   -4.6588   -3.7787 C   0  0  0  0  0  0
    6.3310   -5.2191   -4.0258 C   0  0  0  0  0  0
    6.4621   -6.3660   -4.8325 C   0  0  0  0  0  0
    5.3216   -6.9554   -5.4091 C   0  0  0  0  0  0
    4.0510   -6.3935   -5.1827 C   0  0  0  0  0  0
    3.9177   -5.2471   -4.3751 C   0  0  0  0  0  0
   -6.2923    1.1555   -0.2273 N   0  0  0  0  0  0
   -6.9837    2.3077   -0.7845 C   0  0  0  0  0  0
   -4.1923    2.1081   -0.7818 N   0  0  0  0  0  0
   -3.8239   -3.2266    3.0093 H   0  0  0  0  0  0
   -3.8621   -1.4749    2.8394 H   0  0  0  0  0  0
   -2.3630   -2.2852    3.2876 H   0  0  0  0  0  0
   -2.3232   -3.4376    1.0450 H   0  0  0  0  0  0
   -3.7776   -2.6778    0.5807 H   0  0  0  0  0  0
   -4.8949   -0.8745    0.6430 H   0  0  0  0  0  0
   -2.3191    2.8694   -1.2105 H   0  0  0  0  0  0
   -0.1538    1.6652   -0.7349 H   0  0  0  0  0  0
    1.5709   -1.6719   -1.4049 H   0  0  0  0  0  0
    4.1130    1.2364    1.7272 H   0  0  0  0  0  0
    5.2888   -1.5934   -1.7287 H   0  0  0  0  0  0
    5.8771   -2.9846   -2.8881 H   0  0  0  0  0  0
    7.2138   -4.7740   -3.5900 H   0  0  0  0  0  0
    7.4384   -6.7928   -5.0093 H   0  0  0  0  0  0
    5.4215   -7.8343   -6.0289 H   0  0  0  0  0  0
    3.1763   -6.8396   -5.6324 H   0  0  0  0  0  0
    2.9323   -4.8291   -4.2383 H   0  0  0  0  0  0
   -6.8353    0.3888    0.1427 H   0  0  0  0  0  0
   -8.0612    2.1804   -0.6820 H   0  0  0  0  0  0
   -6.7530    2.4220   -1.8440 H   0  0  0  0  0  0
   -6.6967    3.2209   -0.2620 H   0  0  0  0  0  0
  1  2  1  0  0  0
  1 34  1  0  0  0
  1 35  1  0  0  0
  1 36  1  0  0  0
  2  3  1  0  0  0
  2 37  1  0  0  0
  2 38  1  0  0  0
  3  4  1  0  0  0
  3 11  1  0  0  0
  4  5  2  0  0  0
  4  8  1  0  0  0
  5  6  1  0  0  0
  5 39  1  0  0  0
  6 31  1  0  0  0
  6 33  2  0  0  0
  7  8  2  0  0  0
  7 40  1  0  0  0
  7 33  1  0  0  0
  8  9  1  0  0  0
  9 10  2  0  0  0
  9 41  1  0  0  0
 10 11  1  0  0  0
 10 13  1  0  0  0
 11 12  2  0  0  0
 13 14  1  0  0  0
 13 18  2  0  0  0
 14 15  2  0  0  0
 14 42  1  0  0  0
 15 16  1  0  0  0
 15 21  1  0  0  0
 16 17  2  0  0  0
 16 20  1  0  0  0
 17 18  1  0  0  0
 17 43  1  0  0  0
 18 19  1  0  0  0
 21 22  1  0  0  0
 21 44  1  0  0  0
 22 23  2  0  0  0
 22 24  1  0  0  0
 24 25  1  0  0  0
 24 45  1  0  0  0
 25 26  1  0  0  0
 25 30  2  0  0  0
 26 27  2  0  0  0
 26 46  1  0  0  0
 27 28  1  0  0  0
 27 47  1  0  0  0
 28 29  2  0  0  0
 28 48  1  0  0  0
 29 30  1  0  0  0
 29 49  1  0  0  0
 30 50  1  0  0  0
 31 32  1  0  0  0
 31 51  1  0  0  0
 32 52  1  0  0  0
 32 53  1  0  0  0
 32 54  1  0  0  0
M  END
> <s_m_entry_id>
12

> <i_f3d_flags>
0

> <r_epik_Ionization_Penalty>
  0.0092

> <r_epik_State_Penalty>
  0.0070

> <i_epik_Tot_Q>
0

> <s_pdb_PDB_TITLE>
Ripretinib

> <s_m_Source_Path>
/media/4tb_disk1/SijieChen/TKI/pharmacophore_hypothesis-2/ligprep57_mae/active_less_than_50

> <s_m_Source_File>
Ripretinib.mae

> <i_m_Source_File_Index>
1

$$$$
Regorafenib
                    3D
 Structure written by MMmdl.
 48 50  0  0  1  0            999 V2000
   -2.2375    6.2729   -3.4591 C   0  0  0  0  0  0
   -1.9811    5.3688   -2.3489 N   0  0  0  0  0  0
   -1.6732    4.0683   -2.4819 C   0  0  0  0  0  0
   -1.5632    3.5136   -3.5764 O   0  0  0  0  0  0
   -1.4365    3.3116   -1.2008 C   0  0  0  0  0  0
   -0.8599    2.0202   -1.2415 C   0  0  0  0  0  0
   -0.6565    1.3236   -0.0334 C   0  0  0  0  0  0
   -1.0446    1.9334    1.1748 C   0  0  0  0  0  0
   -1.6111    3.2203    1.1200 C   0  0  0  0  0  0
   -1.8048    3.8953   -0.0327 N   0  0  0  0  0  0
   -0.1046    0.0710   -0.0348 O   0  0  0  0  0  0
    1.2613    0.0144    0.0356 C   0  0  0  0  0  0
    2.0271   -0.0424   -1.1455 C   0  0  0  0  0  0
    3.4317   -0.1064   -1.0740 C   0  0  0  0  0  0
    4.0813   -0.1341    0.1774 C   0  0  0  0  0  0
    3.3121   -0.0527    1.3648 C   0  0  0  0  0  0
    1.9071    0.0085    1.2884 C   0  0  0  0  0  0
    3.9062   -0.0037    2.5816 F   0  0  0  0  0  0
    5.4988   -0.1842    0.1851 N   0  0  0  0  0  0
    6.2680   -0.9937    0.9320 C   0  0  0  0  0  0
    5.8313   -1.7988    1.7544 O   0  0  0  0  0  0
    7.5704   -0.8029    0.6577 N   0  0  0  0  0  0
    8.6975   -1.4606    1.2212 C   0  0  0  0  0  0
    9.9206   -0.7625    1.2171 C   0  0  0  0  0  0
   11.0799   -1.3585    1.7446 C   0  0  0  0  0  0
   11.0337   -2.6638    2.2705 C   0  0  0  0  0  0
    9.8166   -3.3887    2.2655 C   0  0  0  0  0  0
    8.6559   -2.7793    1.7343 C   0  0  0  0  0  0
    9.7513   -4.8104    2.8182 C   0  0  0  0  0  0
    8.5275   -5.3302    2.7145 F   0  0  0  0  0  0
   10.5898   -5.5994    2.1461 F   0  0  0  0  0  0
   10.0902   -4.8125    4.1075 F   0  0  0  0  0  0
   12.4887   -3.3479    2.9062 Cl  0  0  0  0  0  0
   -2.4799    7.2658   -3.0811 H   0  0  0  0  0  0
   -3.0777    5.9223   -4.0597 H   0  0  0  0  0  0
   -1.3601    6.3571   -4.1014 H   0  0  0  0  0  0
   -2.0446    5.7479   -1.4147 H   0  0  0  0  0  0
   -0.5744    1.5637   -2.1784 H   0  0  0  0  0  0
   -0.9099    1.4282    2.1197 H   0  0  0  0  0  0
   -1.9182    3.7214    2.0259 H   0  0  0  0  0  0
    1.5370   -0.0335   -2.1081 H   0  0  0  0  0  0
    4.0089   -0.1465   -1.9863 H   0  0  0  0  0  0
    1.3238    0.0638    2.1956 H   0  0  0  0  0  0
    5.9650    0.3451   -0.5369 H   0  0  0  0  0  0
    7.7832   -0.0449    0.0260 H   0  0  0  0  0  0
    9.9737    0.2390    0.8151 H   0  0  0  0  0  0
   12.0106   -0.8102    1.7438 H   0  0  0  0  0  0
    7.7347   -3.3398    1.7100 H   0  0  0  0  0  0
  1  2  1  0  0  0
  1 34  1  0  0  0
  1 35  1  0  0  0
  1 36  1  0  0  0
  2  3  1  0  0  0
  2 37  1  0  0  0
  3  4  2  0  0  0
  3  5  1  0  0  0
  5  6  1  0  0  0
  5 10  2  0  0  0
  6  7  2  0  0  0
  6 38  1  0  0  0
  7  8  1  0  0  0
  7 11  1  0  0  0
  8  9  2  0  0  0
  8 39  1  0  0  0
  9 10  1  0  0  0
  9 40  1  0  0  0
 11 12  1  0  0  0
 12 13  1  0  0  0
 12 17  2  0  0  0
 13 14  2  0  0  0
 13 41  1  0  0  0
 14 15  1  0  0  0
 14 42  1  0  0  0
 15 16  2  0  0  0
 15 19  1  0  0  0
 16 17  1  0  0  0
 16 18  1  0  0  0
 17 43  1  0  0  0
 19 20  1  0  0  0
 19 44  1  0  0  0
 20 21  2  0  0  0
 20 22  1  0  0  0
 22 23  1  0  0  0
 22 45  1  0  0  0
 23 24  1  0  0  0
 23 28  2  0  0  0
 24 25  2  0  0  0
 24 46  1  0  0  0
 25 26  1  0  0  0
 25 47  1  0  0  0
 26 27  2  0  0  0
 26 33  1  0  0  0
 27 28  1  0  0  0
 27 29  1  0  0  0
 28 48  1  0  0  0
 29 30  1  0  0  0
 29 31  1  0  0  0
 29 32  1  0  0  0
M  END
> <s_m_entry_id>
13

> <i_f3d_flags>
0

> <r_lp_tautomer_probability>
1

> <r_epik_Ionization_Penalty>
  0.0000

> <r_epik_State_Penalty>
  0.0000

> <i_epik_Tot_Q>
0

> <s_pdb_PDB_TITLE>
Regorafenib

> <s_m_Source_Path>
/media/4tb_disk1/SijieChen/TKI/pharmacophore_hypothesis-2/ligprep57_mae/active_less_than_50

> <s_m_Source_File>
Regorafenib.mae

> <i_m_Source_File_Index>
1

$$$$
Radotinib
                    3D
 Structure written by MMmdl.
 60 64  0  0  1  0            999 V2000
   -4.6283    0.0423    0.3152 C   0  0  0  0  0  0
   -3.1089    0.0482    0.3079 C   0  0  0  0  0  0
   -2.4130   -1.1496    0.5712 C   0  0  0  0  0  0
   -1.0060   -1.1741    0.5666 C   0  0  0  0  0  0
   -0.2721    0.0009    0.2981 C   0  0  0  0  0  0
   -0.9728    1.2039    0.0511 C   0  0  0  0  0  0
   -2.3851    1.2339    0.0366 C   0  0  0  0  0  0
   -3.0678    2.4335   -0.2135 N   0  0  0  0  0  0
   -2.8853    3.4546   -1.1283 C   0  0  0  0  0  0
   -3.7886    4.4345   -1.0848 N   0  0  0  0  0  0
   -3.6376    5.4416   -1.9704 C   0  0  0  0  0  0
   -2.5815    5.4598   -2.9030 C   0  0  0  0  0  0
   -1.6784    4.3694   -2.8732 C   0  0  0  0  0  0
   -1.8530    3.3713   -1.9738 N   0  0  0  0  0  0
   -0.5247    4.2362   -3.7960 C   0  0  0  0  0  0
    0.3004    3.0832   -3.8495 C   0  0  0  0  0  0
    1.3456    2.9767   -4.7002 N   0  0  0  0  0  0
    1.5775    4.0319   -5.5091 C   0  0  0  0  0  0
    0.7653    5.1828   -5.4715 C   0  0  0  0  0  0
   -0.2809    5.2840   -4.6226 N   0  0  0  0  0  0
    1.2307   -0.0296    0.3171 C   0  0  0  0  0  0
    1.8245   -0.8498    1.0161 O   0  0  0  0  0  0
    1.8188    0.8388   -0.5288 N   0  0  0  0  0  0
    3.1978    1.0950   -0.7678 C   0  0  0  0  0  0
    3.4965    1.9578   -1.8405 C   0  0  0  0  0  0
    4.8280    2.2877   -2.1626 C   0  0  0  0  0  0
    5.8798    1.7423   -1.3966 C   0  0  0  0  0  0
    5.5998    0.8783   -0.3143 C   0  0  0  0  0  0
    4.2607    0.5634    0.0021 C   0  0  0  0  0  0
    6.6393    0.3376    0.4793 N   0  0  0  0  0  0
    6.7036    0.0458    1.8336 C   0  0  0  0  0  0
    7.9594   -0.4823    2.0387 C   0  0  0  0  0  0
    8.6604   -0.5283    0.8312 N   0  0  0  0  0  0
    7.8120   -0.0280   -0.0585 C   0  0  0  0  0  0
    8.5735   -0.9670    3.3134 C   0  0  0  0  0  0
    5.1044    3.2185   -3.3336 C   0  0  0  0  0  0
    6.3780    3.6125   -3.3657 F   0  0  0  0  0  0
    4.8248    2.5865   -4.4730 F   0  0  0  0  0  0
    4.3319    4.3016   -3.2435 F   0  0  0  0  0  0
   -5.0087    0.7353    1.0659 H   0  0  0  0  0  0
   -5.0225   -0.9487    0.5424 H   0  0  0  0  0  0
   -5.0139    0.3423   -0.6595 H   0  0  0  0  0  0
   -2.9562   -2.0599    0.7784 H   0  0  0  0  0  0
   -0.4959   -2.1047    0.7701 H   0  0  0  0  0  0
   -0.4252    2.1188   -0.1221 H   0  0  0  0  0  0
   -3.9581    2.4890    0.2591 H   0  0  0  0  0  0
   -4.3656    6.2386   -1.9367 H   0  0  0  0  0  0
   -2.4817    6.2737   -3.6058 H   0  0  0  0  0  0
    0.1298    2.2315   -3.2073 H   0  0  0  0  0  0
    2.4134    3.9581   -6.1889 H   0  0  0  0  0  0
    0.9551    6.0230   -6.1227 H   0  0  0  0  0  0
    1.1816    1.3904   -1.0851 H   0  0  0  0  0  0
    2.6935    2.3765   -2.4268 H   0  0  0  0  0  0
    6.9023    1.9963   -1.6330 H   0  0  0  0  0  0
    4.0772   -0.0866    0.8420 H   0  0  0  0  0  0
    5.8861    0.2324    2.5147 H   0  0  0  0  0  0
    8.0558    0.0574   -1.1076 H   0  0  0  0  0  0
    7.8746   -0.8882    4.1463 H   0  0  0  0  0  0
    9.4591   -0.3851    3.5689 H   0  0  0  0  0  0
    8.8743   -2.0117    3.2324 H   0  0  0  0  0  0
  1  2  1  0  0  0
  1 40  1  0  0  0
  1 41  1  0  0  0
  1 42  1  0  0  0
  2  3  1  0  0  0
  2  7  2  0  0  0
  3  4  2  0  0  0
  3 43  1  0  0  0
  4  5  1  0  0  0
  4 44  1  0  0  0
  5  6  2  0  0  0
  5 21  1  0  0  0
  6  7  1  0  0  0
  6 45  1  0  0  0
  7  8  1  0  0  0
  8  9  1  0  0  0
  8 46  1  0  0  0
  9 10  1  0  0  0
  9 14  2  0  0  0
 10 11  2  0  0  0
 11 12  1  0  0  0
 11 47  1  0  0  0
 12 13  2  0  0  0
 12 48  1  0  0  0
 13 14  1  0  0  0
 13 15  1  0  0  0
 15 16  1  0  0  0
 15 20  2  0  0  0
 16 17  2  0  0  0
 16 49  1  0  0  0
 17 18  1  0  0  0
 18 19  2  0  0  0
 18 50  1  0  0  0
 19 20  1  0  0  0
 19 51  1  0  0  0
 21 22  2  0  0  0
 21 23  1  0  0  0
 23 24  1  0  0  0
 23 52  1  0  0  0
 24 25  1  0  0  0
 24 29  2  0  0  0
 25 26  2  0  0  0
 25 53  1  0  0  0
 26 27  1  0  0  0
 26 36  1  0  0  0
 27 28  2  0  0  0
 27 54  1  0  0  0
 28 29  1  0  0  0
 28 30  1  0  0  0
 29 55  1  0  0  0
 30 31  1  0  0  0
 30 34  1  0  0  0
 31 32  2  0  0  0
 31 56  1  0  0  0
 32 33  1  0  0  0
 32 35  1  0  0  0
 33 34  2  0  0  0
 34 57  1  0  0  0
 35 58  1  0  0  0
 35 59  1  0  0  0
 35 60  1  0  0  0
 36 37  1  0  0  0
 36 38  1  0  0  0
 36 39  1  0  0  0
M  END
> <s_m_entry_id>
14

> <i_f3d_flags>
0

> <r_lp_tautomer_probability>
0.999999987636

> <r_epik_Ionization_Penalty>
  0.1504

> <r_epik_State_Penalty>
  0.1396

> <i_epik_Tot_Q>
0

> <s_pdb_PDB_TITLE>
Radotinib

> <s_m_Source_Path>
/media/4tb_disk1/SijieChen/TKI/pharmacophore_hypothesis-2/ligprep57_mae/active_less_than_50

> <s_m_Source_File>
Radotinib.mae

> <i_m_Source_File_Index>
1

$$$$
Pralsetinib
                    3D
 Structure written by MMmdl.
 71 75  0  0  1  0            999 V2000
    1.0353    5.7063   -2.9693 C   0  0  0  0  0  0
   -0.1933    4.9018   -2.7117 C   0  0  0  0  0  0
   -1.4161    5.2333   -3.2508 N   0  0  0  0  0  0
   -2.3987    4.3814   -2.9030 N   0  0  0  0  0  0
   -1.7858    3.5000   -2.1298 C   0  0  0  0  0  0
   -0.3911    3.7699   -1.9716 C   0  0  0  0  0  0
   -2.5093    2.4321   -1.5752 N   0  0  0  0  0  0
   -2.1023    1.3996   -0.7156 C   0  0  0  0  0  0
   -0.8412    1.3646   -0.2284 N   0  0  0  0  0  0
   -0.5109    0.3571    0.5868 C   0  0  0  0  0  0
   -1.3192   -0.6371    0.9676 N   0  0  0  0  0  0
   -2.5835   -0.6165    0.4954 C   0  0  0  0  0  0
   -3.0372    0.4016   -0.3684 C   0  0  0  0  0  0
   -3.4897   -1.7473    0.9330 C   0  0  0  0  0  0
    0.9319    0.3396    1.0927 C   0  0  1  0  0  0
    1.0603    0.4188    2.6278 C   0  0  0  0  0  0
    0.9249   -0.9512    3.3313 C   0  0  0  0  0  0
    1.8264   -2.0716    2.7311 C   0  0  2  0  0  0
    1.5893   -2.1388    1.1998 C   0  0  0  0  0  0
    1.7915   -0.7877    0.4874 C   0  0  0  0  0  0
    1.3977   -3.3531    3.2144 O   0  0  0  0  0  0
    1.4131   -3.5869    4.6218 C   0  0  0  0  0  0
    3.3334   -1.8914    3.0496 C   0  0  0  0  0  0
    3.7431   -0.9067    3.6648 O   0  0  0  0  0  0
    4.1456   -2.8846    2.6516 N   0  0  0  0  0  0
    5.5841   -2.9572    2.8938 C   0  0  1  0  0  0
    5.9188   -3.5554    4.2548 C   0  0  0  0  0  0
    5.1702   -4.6170    4.8069 C   0  0  0  0  0  0
    5.4456   -5.1786    6.0021 N   0  0  0  0  0  0
    6.4954   -4.7140    6.7206 C   0  0  0  0  0  0
    7.3066   -3.6538    6.2452 C   0  0  0  0  0  0
    7.0129   -3.0708    4.9979 C   0  0  0  0  0  0
    6.7737   -5.3235    7.9738 N   0  0  0  0  0  0
    7.7940   -4.8875    8.7652 N   0  0  0  0  0  0
    7.7769   -5.6635    9.8382 C   0  0  0  0  0  0
    6.7339   -6.6163    9.7458 C   0  0  0  0  0  0
    6.1060   -6.3882    8.5602 C   0  0  0  0  0  0
    6.4225   -7.5678   10.6573 F   0  0  0  0  0  0
    6.2470   -3.7561    1.7637 C   0  0  0  0  0  0
    1.8317    5.4334   -2.2765 H   0  0  0  0  0  0
    0.8363    6.7714   -2.8498 H   0  0  0  0  0  0
    1.3995    5.5411   -3.9833 H   0  0  0  0  0  0
   -1.5914    6.0262   -3.8515 H   0  0  0  0  0  0
    0.3620    3.2347   -1.4145 H   0  0  0  0  0  0
   -3.4799    2.3974   -1.8497 H   0  0  0  0  0  0
   -4.0488    0.4134   -0.7473 H   0  0  0  0  0  0
   -4.5299   -1.5363    0.6833 H   0  0  0  0  0  0
   -3.4226   -1.8963    2.0111 H   0  0  0  0  0  0
   -3.1997   -2.6745    0.4386 H   0  0  0  0  0  0
    1.3714    1.2679    0.7220 H   0  0  0  0  0  0
    2.0380    0.8368    2.8654 H   0  0  0  0  0  0
    0.3378    1.1285    3.0324 H   0  0  0  0  0  0
    1.1366   -0.8150    4.3924 H   0  0  0  0  0  0
   -0.1155   -1.2726    3.2847 H   0  0  0  0  0  0
    2.2392   -2.8850    0.7414 H   0  0  0  0  0  0
    0.5780   -2.4980    1.0095 H   0  0  0  0  0  0
    1.5923   -0.8836   -0.5806 H   0  0  0  0  0  0
    2.8425   -0.5084    0.5691 H   0  0  0  0  0  0
    1.1272   -4.6215    4.8107 H   0  0  0  0  0  0
    0.6953   -2.9551    5.1444 H   0  0  0  0  0  0
    2.3970   -3.4380    5.0662 H   0  0  0  0  0  0
    3.7270   -3.6624    2.1621 H   0  0  0  0  0  0
    5.9922   -1.9451    2.8597 H   0  0  0  0  0  0
    4.3281   -5.0360    4.2761 H   0  0  0  0  0  0
    8.1467   -3.2824    6.8133 H   0  0  0  0  0  0
    7.6225   -2.2635    4.6193 H   0  0  0  0  0  0
    8.5026   -5.5118   10.6235 H   0  0  0  0  0  0
    5.2643   -6.8817    8.0968 H   0  0  0  0  0  0
    7.3306   -3.7790    1.8837 H   0  0  0  0  0  0
    6.0335   -3.3120    0.7907 H   0  0  0  0  0  0
    5.8929   -4.7876    1.7441 H   0  0  0  0  0  0
  1  2  1  0  0  0
  1 40  1  0  0  0
  1 41  1  0  0  0
  1 42  1  0  0  0
  2  3  1  0  0  0
  2  6  2  0  0  0
  3  4  1  0  0  0
  3 43  1  0  0  0
  4  5  2  0  0  0
  5  6  1  0  0  0
  5  7  1  0  0  0
  6 44  1  0  0  0
  7  8  1  0  0  0
  7 45  1  0  0  0
  8  9  2  0  0  0
  8 13  1  0  0  0
  9 10  1  0  0  0
 10 11  2  0  0  0
 10 15  1  0  0  0
 11 12  1  0  0  0
 12 13  2  0  0  0
 12 14  1  0  0  0
 13 46  1  0  0  0
 14 47  1  0  0  0
 14 48  1  0  0  0
 14 49  1  0  0  0
 15 16  1  0  0  0
 15 20  1  0  0  0
 15 50  1  0  0  0
 16 17  1  0  0  0
 16 51  1  0  0  0
 16 52  1  0  0  0
 17 18  1  0  0  0
 17 53  1  0  0  0
 17 54  1  0  0  0
 18 19  1  0  0  0
 18 21  1  0  0  0
 18 23  1  0  0  0
 19 20  1  0  0  0
 19 55  1  0  0  0
 19 56  1  0  0  0
 20 57  1  0  0  0
 20 58  1  0  0  0
 21 22  1  0  0  0
 22 59  1  0  0  0
 22 60  1  0  0  0
 22 61  1  0  0  0
 23 24  2  0  0  0
 23 25  1  0  0  0
 25 26  1  0  0  0
 25 62  1  0  0  0
 26 27  1  0  0  0
 26 39  1  0  0  0
 26 63  1  0  0  0
 27 28  1  0  0  0
 27 32  2  0  0  0
 28 29  2  0  0  0
 28 64  1  0  0  0
 29 30  1  0  0  0
 30 31  2  0  0  0
 30 33  1  0  0  0
 31 32  1  0  0  0
 31 65  1  0  0  0
 32 66  1  0  0  0
 33 34  1  0  0  0
 33 37  1  0  0  0
 34 35  2  0  0  0
 35 36  1  0  0  0
 35 67  1  0  0  0
 36 37  2  0  0  0
 36 38  1  0  0  0
 37 68  1  0  0  0
 39 69  1  0  0  0
 39 70  1  0  0  0
 39 71  1  0  0  0
M  END
> <s_m_entry_id>
15

> <i_f3d_flags>
0

> <r_lp_tautomer_probability>
0.842599703243816

> <r_epik_Ionization_Penalty>
  0.0017

> <r_epik_State_Penalty>
  0.0915

> <i_epik_Tot_Q>
0

> <s_pdb_PDB_TITLE>
Pralsetinib

> <s_m_Source_Path>
/media/4tb_disk1/SijieChen/TKI/pharmacophore_hypothesis-2/ligprep57_mae/active_less_than_50

> <s_m_Source_File>
Pralsetinib.mae

> <i_m_Source_File_Index>
1

$$$$
Ponatinib
                    3D
 Structure written by MMmdl.
 67 71  0  0  1  0            999 V2000
   -6.5471   -0.5020   -0.1717 C   0  0  0  0  0  0
   -5.0919   -0.0668   -0.0869 C   0  0  0  0  0  0
   -4.1206   -1.0052    0.3201 C   0  0  0  0  0  0
   -2.7650   -0.6388    0.4133 C   0  0  0  0  0  0
   -2.3569    0.6760    0.0947 C   0  0  0  0  0  0
   -3.3303    1.6183   -0.3026 C   0  0  0  0  0  0
   -4.6902    1.2561   -0.4010 C   0  0  0  0  0  0
   -5.6503    2.2653   -0.8264 C   0  0  0  0  0  0
   -6.4465    3.1170   -1.1894 C   0  0  0  0  0  0
   -7.3671    4.1071   -1.5816 C   0  0  0  0  0  0
   -7.6238    4.5019   -2.8638 C   0  0  0  0  0  0
   -8.9154    5.7070   -1.5852 C   0  0  0  0  0  0
   -8.1704    4.8512   -0.7342 N   0  0  0  0  0  0
   -8.2265    4.7708    0.6257 N   0  0  0  0  0  0
   -9.1041    5.6253    1.1448 C   0  0  0  0  0  0
   -9.9172    6.5385    0.4312 C   0  0  0  0  0  0
   -9.8259    6.5822   -0.9389 C   0  0  0  0  0  0
   -0.9188    1.0914    0.2185 C   0  0  0  0  0  0
   -0.6337    2.2378    0.5638 O   0  0  0  0  0  0
   -0.0253    0.1389   -0.1132 N   0  0  0  0  0  0
    1.3951    0.1935   -0.0778 C   0  0  0  0  0  0
    2.0800   -1.0325    0.0025 C   0  0  0  0  0  0
    3.4844   -1.0598    0.0333 C   0  0  0  0  0  0
    4.2330    0.1350   -0.0180 C   0  0  0  0  0  0
    3.5559    1.3816   -0.1267 C   0  0  0  0  0  0
    2.1408    1.3932   -0.1598 C   0  0  0  0  0  0
    4.3150    2.7055   -0.2279 C   0  0  0  0  0  0
    3.4911    3.7519   -0.2927 F   0  0  0  0  0  0
    5.0959    2.8754    0.8382 F   0  0  0  0  0  0
    5.0664    2.7129   -1.3288 F   0  0  0  0  0  0
    5.7531    0.0158    0.0358 C   0  0  0  0  0  0
    6.0105    0.3630    2.4889 C   0  0  0  0  0  0
    6.4338   -0.3360    3.7980 C   0  0  0  0  0  0
    8.0454   -1.6527    2.6042 C   0  0  0  0  0  0
    7.6427   -0.9718    1.2790 C   0  0  0  0  0  0
    8.7834    0.3177    3.8364 C   0  0  0  0  0  0
   -8.5914    5.5017   -2.8643 N   0  0  0  0  0  0
    6.2267   -0.5372    1.3294 N   0  3  0  0  0  0
    7.8278   -0.7820    3.7610 N   0  0  0  0  0  0
   -7.1636    0.0938    0.5023 H   0  0  0  0  0  0
   -6.6664   -1.5499    0.1052 H   0  0  0  0  0  0
   -6.9248   -0.3794   -1.1872 H   0  0  0  0  0  0
   -4.4120   -2.0153    0.5682 H   0  0  0  0  0  0
   -2.0468   -1.3774    0.7392 H   0  0  0  0  0  0
   -3.0309    2.6302   -0.5392 H   0  0  0  0  0  0
   -7.1909    4.1482   -3.7882 H   0  0  0  0  0  0
   -9.1867    5.6000    2.2264 H   0  0  0  0  0  0
  -10.6034    7.1956    0.9552 H   0  0  0  0  0  0
  -10.4314    7.2664   -1.5239 H   0  0  0  0  0  0
   -0.4178   -0.7638   -0.3383 H   0  0  0  0  0  0
    1.5289   -1.9610    0.0475 H   0  0  0  0  0  0
    3.9903   -2.0119    0.1023 H   0  0  0  0  0  0
    1.6307    2.3367   -0.2666 H   0  0  0  0  0  0
    6.0484   -0.6587   -0.7690 H   0  0  0  0  0  0
    6.2628    0.9558   -0.1641 H   0  0  0  0  0  0
    4.9560    0.6300    2.5596 H   0  0  0  0  0  0
    6.5592    1.2948    2.3485 H   0  0  0  0  0  0
    6.2833    0.3277    4.6503 H   0  0  0  0  0  0
    5.7965   -1.2049    3.9682 H   0  0  0  0  0  0
    7.4569   -2.5612    2.7393 H   0  0  0  0  0  0
    9.0899   -1.9645    2.5707 H   0  0  0  0  0  0
    8.2891   -0.1211    1.0587 H   0  0  0  0  0  0
    7.7742   -1.6816    0.4617 H   0  0  0  0  0  0
    9.8019   -0.0700    3.8738 H   0  0  0  0  0  0
    8.6185    0.8984    4.7444 H   0  0  0  0  0  0
    8.7125    0.9946    2.9859 H   0  0  0  0  0  0
    5.6812   -1.3692    1.5030 H   0  0  0  0  0  0
  1  2  1  0  0  0
  1 40  1  0  0  0
  1 41  1  0  0  0
  1 42  1  0  0  0
  2  3  1  0  0  0
  2  7  2  0  0  0
  3  4  2  0  0  0
  3 43  1  0  0  0
  4  5  1  0  0  0
  4 44  1  0  0  0
  5  6  2  0  0  0
  5 18  1  0  0  0
  6  7  1  0  0  0
  6 45  1  0  0  0
  7  8  1  0  0  0
  8  9  3  0  0  0
  9 10  1  0  0  0
 10 11  2  0  0  0
 10 13  1  0  0  0
 11 46  1  0  0  0
 11 37  1  0  0  0
 12 13  1  0  0  0
 12 17  1  0  0  0
 12 37  2  0  0  0
 13 14  1  0  0  0
 14 15  2  0  0  0
 15 16  1  0  0  0
 15 47  1  0  0  0
 16 17  2  0  0  0
 16 48  1  0  0  0
 17 49  1  0  0  0
 18 19  2  0  0  0
 18 20  1  0  0  0
 20 21  1  0  0  0
 20 50  1  0  0  0
 21 22  1  0  0  0
 21 26  2  0  0  0
 22 23  2  0  0  0
 22 51  1  0  0  0
 23 24  1  0  0  0
 23 52  1  0  0  0
 24 25  2  0  0  0
 24 31  1  0  0  0
 25 26  1  0  0  0
 25 27  1  0  0  0
 26 53  1  0  0  0
 27 28  1  0  0  0
 27 29  1  0  0  0
 27 30  1  0  0  0
 31 54  1  0  0  0
 31 55  1  0  0  0
 31 38  1  0  0  0
 32 33  1  0  0  0
 32 56  1  0  0  0
 32 57  1  0  0  0
 32 38  1  0  0  0
 33 58  1  0  0  0
 33 59  1  0  0  0
 33 39  1  0  0  0
 34 35  1  0  0  0
 34 60  1  0  0  0
 34 61  1  0  0  0
 34 39  1  0  0  0
 35 62  1  0  0  0
 35 63  1  0  0  0
 35 38  1  0  0  0
 36 64  1  0  0  0
 36 65  1  0  0  0
 36 66  1  0  0  0
 36 39  1  0  0  0
 38 67  1  0  0  0
M  CHG  1  38   1
M  END
> <s_m_entry_id>
16

> <i_f3d_flags>
0

> <r_epik_Ionization_Penalty>
  0.0174

> <r_epik_State_Penalty>
  0.2066

> <i_epik_Tot_Q>
1

> <s_pdb_PDB_TITLE>
Ponatinib

> <s_m_Source_Path>
/media/4tb_disk1/SijieChen/TKI/pharmacophore_hypothesis-2/ligprep57_mae/active_less_than_50

> <s_m_Source_File>
Ponatinib.mae

> <i_m_Source_File_Index>
1

$$$$
Pexidartinib
                    3D
 Structure written by MMmdl.
 45 48  0  0  1  0            999 V2000
   -2.1537   -1.0202    0.0449 C   0  0  0  0  0  0
   -0.7730   -1.1741   -0.1983 C   0  0  0  0  0  0
   -0.0117   -0.0554   -0.6143 C   0  0  0  0  0  0
   -1.9482    1.3254   -0.5476 C   0  0  0  0  0  0
   -2.7537    0.2451   -0.1315 C   0  0  0  0  0  0
   -4.2373    0.4432    0.1154 C   0  0  0  0  0  0
   -5.0159    0.4827   -1.1648 C   0  0  0  0  0  0
   -5.5404    1.6017   -1.7642 C   0  0  0  0  0  0
   -6.1863    1.2343   -2.9328 N   0  0  0  0  0  0
   -6.1006   -0.1289   -3.1217 C   0  0  0  0  0  0
   -5.3630   -0.6286   -2.0114 C   0  0  0  0  0  0
   -5.1521   -2.0258   -1.9997 C   0  0  0  0  0  0
   -5.6638   -2.8109   -3.0517 C   0  0  0  0  0  0
   -6.3784   -2.1798   -4.0923 C   0  0  0  0  0  0
   -6.6152   -0.8501   -4.1595 N   0  0  0  0  0  0
   -5.4191   -4.5185   -3.0662 Cl  0  0  0  0  0  0
    1.3626   -0.0910   -0.8831 N   0  0  0  0  0  0
    2.1228   -1.3185   -0.7119 C   0  0  0  0  0  0
    3.5919   -1.1497   -1.0370 C   0  0  0  0  0  0
    4.0386   -1.1259   -2.3735 C   0  0  0  0  0  0
    5.4124   -0.9536   -2.6280 C   0  0  0  0  0  0
    6.2918   -0.8108   -1.5305 C   0  0  0  0  0  0
    5.8662   -0.8341   -0.2459 N   0  0  0  0  0  0
    4.5479   -1.0007   -0.0110 C   0  0  0  0  0  0
    7.7886   -0.6156   -1.7294 C   0  0  0  0  0  0
    8.1185   -0.6129   -3.0215 F   0  0  0  0  0  0
    8.1638    0.5474   -1.1962 F   0  0  0  0  0  0
    8.4544   -1.6004   -1.1262 F   0  0  0  0  0  0
   -0.6290    1.1372   -0.7692 N   0  3  0  0  0  0
   -2.7435   -1.8681    0.3614 H   0  0  0  0  0  0
   -0.3207   -2.1454   -0.0630 H   0  0  0  0  0  0
   -2.3169    2.3277   -0.7119 H   0  0  0  0  0  0
   -4.6083   -0.3567    0.7574 H   0  0  0  0  0  0
   -4.3777    1.3676    0.6771 H   0  0  0  0  0  0
   -5.5055    2.6359   -1.4539 H   0  0  0  0  0  0
   -6.6491    1.8923   -3.5434 H   0  0  0  0  0  0
   -4.6035   -2.4872   -1.1923 H   0  0  0  0  0  0
   -6.7771   -2.7676   -4.9060 H   0  0  0  0  0  0
    1.8480    0.7493   -1.1633 H   0  0  0  0  0  0
    2.0211   -1.6675    0.3166 H   0  0  0  0  0  0
    1.7089   -2.0937   -1.3580 H   0  0  0  0  0  0
    3.3408   -1.2344   -3.1911 H   0  0  0  0  0  0
    5.7750   -0.9307   -3.6450 H   0  0  0  0  0  0
    4.2476   -1.0094    1.0265 H   0  0  0  0  0  0
   -0.0724    1.9378   -1.0698 H   0  0  0  0  0  0
  1  2  1  0  0  0
  1  5  2  0  0  0
  1 30  1  0  0  0
  2  3  2  0  0  0
  2 31  1  0  0  0
  3 17  1  0  0  0
  3 29  1  0  0  0
  4  5  1  0  0  0
  4 32  1  0  0  0
  4 29  2  0  0  0
  5  6  1  0  0  0
  6  7  1  0  0  0
  6 33  1  0  0  0
  6 34  1  0  0  0
  7  8  2  0  0  0
  7 11  1  0  0  0
  8  9  1  0  0  0
  8 35  1  0  0  0
  9 10  1  0  0  0
  9 36  1  0  0  0
 10 11  1  0  0  0
 10 15  2  0  0  0
 11 12  2  0  0  0
 12 13  1  0  0  0
 12 37  1  0  0  0
 13 14  2  0  0  0
 13 16  1  0  0  0
 14 15  1  0  0  0
 14 38  1  0  0  0
 17 18  1  0  0  0
 17 39  1  0  0  0
 18 19  1  0  0  0
 18 40  1  0  0  0
 18 41  1  0  0  0
 19 20  1  0  0  0
 19 24  2  0  0  0
 20 21  2  0  0  0
 20 42  1  0  0  0
 21 22  1  0  0  0
 21 43  1  0  0  0
 22 23  2  0  0  0
 22 25  1  0  0  0
 23 24  1  0  0  0
 24 44  1  0  0  0
 25 26  1  0  0  0
 25 27  1  0  0  0
 25 28  1  0  0  0
 29 45  1  0  0  0
M  CHG  1  29   1
M  END
> <s_m_entry_id>
17

> <i_f3d_flags>
0

> <r_lp_tautomer_probability>
0.999992284585528

> <r_epik_Ionization_Penalty>
  0.2266

> <r_epik_State_Penalty>
  0.2168

> <i_epik_Tot_Q>
1

> <s_pdb_PDB_TITLE>
Pexidartinib

> <s_m_Source_Path>
/media/4tb_disk1/SijieChen/TKI/pharmacophore_hypothesis-2/ligprep57_mae/active_less_than_50

> <s_m_Source_File>
Pexidartinib.mae

> <i_m_Source_File_Index>
1

$$$$
Pemigatinib
                    3D
 Structure written by MMmdl.
 62 66  0  0  1  0            999 V2000
   -2.5573    3.8138    0.4955 C   0  0  0  0  0  0
   -2.5016    3.1486   -0.8920 C   0  0  0  0  0  0
   -1.9180    1.7958   -0.8382 N   0  0  0  0  0  0
   -2.7788    0.6340   -0.8253 C   0  0  0  0  0  0
   -4.1693    0.6534   -0.4899 C   0  0  0  0  0  0
   -5.1620    1.6104   -0.0537 C   0  0  0  0  0  0
   -6.3469    0.9403    0.1053 C   0  0  0  0  0  0
   -6.1481   -0.3883   -0.2148 N   0  0  0  0  0  0
   -4.8362   -0.6089   -0.5727 C   0  0  0  0  0  0
   -4.3048   -1.8117   -0.9286 N   0  0  0  0  0  0
   -2.9896   -1.7768   -1.2144 C   0  0  0  0  0  0
   -2.2026   -0.6095   -1.1674 C   0  0  0  0  0  0
   -0.7295   -0.6578   -1.4757 C   0  0  0  0  0  0
   -0.0200    0.4530   -0.8387 N   0  0  0  0  0  0
   -0.5507    1.7052   -0.8219 C   0  0  0  0  0  0
    0.1771    2.7001   -0.7493 O   0  0  0  0  0  0
    1.3115    0.2199   -0.3820 C   0  0  0  0  0  0
    2.2828   -0.3215   -1.2540 C   0  0  0  0  0  0
    3.5969   -0.5657   -0.8068 C   0  0  0  0  0  0
    3.9353   -0.2656    0.5362 C   0  0  0  0  0  0
    2.9716    0.2716    1.4253 C   0  0  0  0  0  0
    1.6645    0.5094    0.9564 C   0  0  0  0  0  0
    0.7369    1.0041    1.8129 F   0  0  0  0  0  0
    3.2251    0.5808    2.7453 O   0  0  0  0  0  0
    4.5276    0.3402    3.2569 C   0  0  0  0  0  0
    4.4809   -1.0887   -1.7278 O   0  0  0  0  0  0
    5.8115   -1.3557   -1.3099 C   0  0  0  0  0  0
    1.9664   -0.5965   -2.5429 F   0  0  0  0  0  0
   -7.6776    1.4568    0.5503 C   0  0  0  0  0  0
   -7.3495    1.0664    2.9256 C   0  0  0  0  0  0
   -7.9016    0.3820    4.1876 C   0  0  0  0  0  0
   -9.2450    0.7997    4.4094 O   0  0  0  0  0  0
  -10.0992    0.5159    3.3057 C   0  0  0  0  0  0
   -9.5535    1.2029    2.0418 C   0  0  0  0  0  0
   -8.1821    0.7995    1.7541 N   0  0  0  0  0  0
   -3.0675    4.7754    0.4421 H   0  0  0  0  0  0
   -1.5581    3.9966    0.8908 H   0  0  0  0  0  0
   -3.0851    3.1951    1.2208 H   0  0  0  0  0  0
   -3.4832    3.1272   -1.3601 H   0  0  0  0  0  0
   -1.9262    3.7850   -1.5670 H   0  0  0  0  0  0
   -5.0184    2.6627    0.1300 H   0  0  0  0  0  0
   -6.8786   -1.0838   -0.1651 H   0  0  0  0  0  0
   -2.5435   -2.7228   -1.4845 H   0  0  0  0  0  0
   -0.3232   -1.6122   -1.1365 H   0  0  0  0  0  0
   -0.5952   -0.6094   -2.5569 H   0  0  0  0  0  0
    4.9380   -0.4495    0.8862 H   0  0  0  0  0  0
    4.5611    0.6333    4.3060 H   0  0  0  0  0  0
    5.2790    0.9268    2.7268 H   0  0  0  0  0  0
    4.7883   -0.7177    3.2024 H   0  0  0  0  0  0
    6.3745   -1.7699   -2.1463 H   0  0  0  0  0  0
    5.8362   -2.0882   -0.5020 H   0  0  0  0  0  0
    6.3196   -0.4451   -0.9898 H   0  0  0  0  0  0
   -7.6189    2.5341    0.7125 H   0  0  0  0  0  0
   -8.3892    1.3135   -0.2640 H   0  0  0  0  0  0
   -7.2867    2.1420    3.0976 H   0  0  0  0  0  0
   -6.3306    0.7188    2.7530 H   0  0  0  0  0  0
   -7.8625   -0.7038    4.0865 H   0  0  0  0  0  0
   -7.2978    0.6452    5.0562 H   0  0  0  0  0  0
  -10.1701   -0.5630    3.1593 H   0  0  0  0  0  0
  -11.1033    0.8759    3.5299 H   0  0  0  0  0  0
  -10.1962    0.9618    1.1945 H   0  0  0  0  0  0
   -9.6010    2.2852    2.1713 H   0  0  0  0  0  0
  1  2  1  0  0  0
  1 36  1  0  0  0
  1 37  1  0  0  0
  1 38  1  0  0  0
  2  3  1  0  0  0
  2 39  1  0  0  0
  2 40  1  0  0  0
  3  4  1  0  0  0
  3 15  1  0  0  0
  4  5  1  0  0  0
  4 12  2  0  0  0
  5  6  1  0  0  0
  5  9  2  0  0  0
  6  7  2  0  0  0
  6 41  1  0  0  0
  7  8  1  0  0  0
  7 29  1  0  0  0
  8  9  1  0  0  0
  8 42  1  0  0  0
  9 10  1  0  0  0
 10 11  2  0  0  0
 11 12  1  0  0  0
 11 43  1  0  0  0
 12 13  1  0  0  0
 13 14  1  0  0  0
 13 44  1  0  0  0
 13 45  1  0  0  0
 14 15  1  0  0  0
 14 17  1  0  0  0
 15 16  2  0  0  0
 17 18  1  0  0  0
 17 22  2  0  0  0
 18 19  2  0  0  0
 18 28  1  0  0  0
 19 20  1  0  0  0
 19 26  1  0  0  0
 20 21  2  0  0  0
 20 46  1  0  0  0
 21 22  1  0  0  0
 21 24  1  0  0  0
 22 23  1  0  0  0
 24 25  1  0  0  0
 25 47  1  0  0  0
 25 48  1  0  0  0
 25 49  1  0  0  0
 26 27  1  0  0  0
 27 50  1  0  0  0
 27 51  1  0  0  0
 27 52  1  0  0  0
 29 53  1  0  0  0
 29 54  1  0  0  0
 29 35  1  0  0  0
 30 31  1  0  0  0
 30 55  1  0  0  0
 30 56  1  0  0  0
 30 35  1  0  0  0
 31 32  1  0  0  0
 31 57  1  0  0  0
 31 58  1  0  0  0
 32 33  1  0  0  0
 33 34  1  0  0  0
 33 59  1  0  0  0
 33 60  1  0  0  0
 34 61  1  0  0  0
 34 62  1  0  0  0
 34 35  1  0  0  0
M  END
> <s_m_entry_id>
18

> <i_f3d_flags>
0

> <r_lp_tautomer_probability>
0.999998432528457

> <r_epik_Ionization_Penalty>
  0.0791

> <r_epik_State_Penalty>
  0.0670

> <i_epik_Tot_Q>
0

> <s_pdb_PDB_TITLE>
Pemigatinib

> <s_m_Source_Path>
/media/4tb_disk1/SijieChen/TKI/pharmacophore_hypothesis-2/ligprep57_mae/active_less_than_50

> <s_m_Source_File>
Pemigatinib.mae

> <i_m_Source_File_Index>
1

$$$$
Pazopanib
                    3D
 Structure written by MMmdl.
 54 57  0  0  1  0            999 V2000
   -3.4090    4.4200   -0.4955 C   0  0  0  0  0  0
   -2.2840    3.4292   -0.2472 C   0  0  0  0  0  0
   -0.9990    3.9310    0.0489 C   0  0  0  0  0  0
    0.0779    3.0566    0.2852 C   0  0  0  0  0  0
   -0.1114    1.6598    0.2216 C   0  0  0  0  0  0
   -1.3939    1.1513   -0.0649 C   0  0  0  0  0  0
   -2.4776    2.0245   -0.3043 C   0  0  0  0  0  0
   -4.0854    1.2967   -0.6696 S   0  0  0  0  0  0
   -4.7079    2.0183   -1.7900 O   0  0  0  0  0  0
   -3.9358   -0.1658   -0.7243 O   0  0  0  0  0  0
   -4.9872    1.6533    0.7521 N   0  0  0  0  0  0
    0.9329    0.7588    0.4704 N   0  0  0  0  0  0
    2.2846    0.7504    0.1738 C   0  0  0  0  0  0
    2.8004    1.7873   -0.4931 N   0  0  0  0  0  0
    4.1196    1.7385   -0.7741 C   0  0  0  0  0  0
    4.9220    0.6459   -0.3897 C   0  0  0  0  0  0
    4.2761   -0.4013    0.3088 C   0  0  0  0  0  0
    2.9504   -0.3330    0.5796 N   0  0  0  0  0  0
    4.9693   -1.5480    0.7450 N   0  0  0  0  0  0
    5.8530   -2.1815   -0.2343 C   0  0  0  0  0  0
    4.7210   -2.2542    1.9432 C   0  0  0  0  0  0
    4.8598   -3.6699    2.0219 C   0  0  0  0  0  0
    4.6185   -4.3628    3.2287 C   0  0  0  0  0  0
    4.2416   -3.6142    4.3554 C   0  0  0  0  0  0
    3.9400   -3.9668    5.6592 C   0  0  0  0  0  0
    3.6340   -2.7898    6.3296 N   0  0  0  0  0  0
    3.7376   -1.7027    5.4805 N   0  0  0  0  0  0
    4.1050   -2.2421    4.2999 C   0  0  0  0  0  0
    4.3402   -1.5367    3.1075 C   0  0  0  0  0  0
    3.2480   -2.5973    7.7122 C   0  0  0  0  0  0
    3.9512   -5.3604    6.1974 C   0  0  0  0  0  0
   -3.6849    4.4268   -1.5497 H   0  0  0  0  0  0
   -3.1075    5.4328   -0.2267 H   0  0  0  0  0  0
   -4.2904    4.1777    0.0964 H   0  0  0  0  0  0
   -0.8307    4.9967    0.1006 H   0  0  0  0  0  0
    1.0457    3.4713    0.5252 H   0  0  0  0  0  0
   -1.5384    0.0818   -0.1023 H   0  0  0  0  0  0
   -4.6337    1.1319    1.5539 H   0  0  0  0  0  0
   -5.9823    1.4820    0.6100 H   0  0  0  0  0  0
    0.6103   -0.1297    0.8250 H   0  0  0  0  0  0
    4.5397    2.5792   -1.3059 H   0  0  0  0  0  0
    5.9791    0.6338   -0.6088 H   0  0  0  0  0  0
    5.3128   -2.9556   -0.7799 H   0  0  0  0  0  0
    6.7078   -2.6439    0.2603 H   0  0  0  0  0  0
    6.2517   -1.4849   -0.9697 H   0  0  0  0  0  0
    5.1420   -4.2487    1.1555 H   0  0  0  0  0  0
    4.7204   -5.4367    3.2806 H   0  0  0  0  0  0
    4.2359   -0.4615    3.0915 H   0  0  0  0  0  0
    4.0386   -2.9632    8.3672 H   0  0  0  0  0  0
    2.3309   -3.1501    7.9158 H   0  0  0  0  0  0
    3.0777   -1.5401    7.9191 H   0  0  0  0  0  0
    4.8371   -5.9004    5.8632 H   0  0  0  0  0  0
    3.0726   -5.9102    5.8605 H   0  0  0  0  0  0
    3.9526   -5.3627    7.2874 H   0  0  0  0  0  0
  1  2  1  0  0  0
  1 32  1  0  0  0
  1 33  1  0  0  0
  1 34  1  0  0  0
  2  3  1  0  0  0
  2  7  2  0  0  0
  3  4  2  0  0  0
  3 35  1  0  0  0
  4  5  1  0  0  0
  4 36  1  0  0  0
  5  6  2  0  0  0
  5 12  1  0  0  0
  6  7  1  0  0  0
  6 37  1  0  0  0
  7  8  1  0  0  0
  8  9  2  0  0  0
  8 10  2  0  0  0
  8 11  1  0  0  0
 11 38  1  0  0  0
 11 39  1  0  0  0
 12 13  1  0  0  0
 12 40  1  0  0  0
 13 14  1  0  0  0
 13 18  2  0  0  0
 14 15  2  0  0  0
 15 16  1  0  0  0
 15 41  1  0  0  0
 16 17  2  0  0  0
 16 42  1  0  0  0
 17 18  1  0  0  0
 17 19  1  0  0  0
 19 20  1  0  0  0
 19 21  1  0  0  0
 20 43  1  0  0  0
 20 44  1  0  0  0
 20 45  1  0  0  0
 21 22  1  0  0  0
 21 29  2  0  0  0
 22 23  2  0  0  0
 22 46  1  0  0  0
 23 24  1  0  0  0
 23 47  1  0  0  0
 24 25  2  0  0  0
 24 28  1  0  0  0
 25 26  1  0  0  0
 25 31  1  0  0  0
 26 27  1  0  0  0
 26 30  1  0  0  0
 27 28  2  0  0  0
 28 29  1  0  0  0
 29 48  1  0  0  0
 30 49  1  0  0  0
 30 50  1  0  0  0
 30 51  1  0  0  0
 31 52  1  0  0  0
 31 53  1  0  0  0
 31 54  1  0  0  0
M  END
> <s_m_entry_id>
19

> <i_f3d_flags>
0

> <r_lp_tautomer_probability>
0.999999648617924

> <r_epik_Ionization_Penalty>
  0.0144

> <r_epik_State_Penalty>
  0.0069

> <i_epik_Tot_Q>
0

> <s_pdb_PDB_TITLE>
Pazopanib

> <s_m_Source_Path>
/media/4tb_disk1/SijieChen/TKI/pharmacophore_hypothesis-2/ligprep57_mae/active_less_than_50

> <s_m_Source_File>
Pazopanib.mae

> <i_m_Source_File_Index>
1

$$$$
Osimertinib
                    3D
 Structure written by MMmdl.
 71 74  0  0  1  0            999 V2000
  -10.5921    3.7604   -1.7895 C   0  0  0  0  0  0
   -9.7154    3.5422   -0.6571 N   0  0  0  0  0  0
   -8.3339    3.4422   -0.7266 C   0  0  0  0  0  0
   -7.8085    3.2427    0.5235 C   0  0  0  0  0  0
   -8.9277    3.1974    1.4295 C   0  0  0  0  0  0
  -10.1155    3.3944    0.6617 C   0  0  0  0  0  0
  -11.3914    3.4090    1.2584 C   0  0  0  0  0  0
  -11.5140    3.2177    2.6458 C   0  0  0  0  0  0
  -10.3620    3.0106    3.4263 C   0  0  0  0  0  0
   -9.0883    2.9995    2.8240 C   0  0  0  0  0  0
   -6.4098    3.0902    0.9261 C   0  0  0  0  0  0
   -5.8941    3.6804    2.1010 C   0  0  0  0  0  0
   -4.5267    3.4635    2.3632 C   0  0  0  0  0  0
   -3.7506    2.7318    1.5354 N   0  0  0  0  0  0
   -4.3370    2.2278    0.4441 C   0  0  0  0  0  0
   -5.6188    2.3686    0.0997 N   0  0  0  0  0  0
   -3.5727    1.4591   -0.4125 N   0  0  0  0  0  0
   -2.2469    1.0145   -0.3455 C   0  0  0  0  0  0
   -2.0075   -0.3724   -0.3564 C   0  0  0  0  0  0
   -0.6922   -0.8838   -0.2835 C   0  0  0  0  0  0
    0.4034    0.0155   -0.2352 C   0  0  0  0  0  0
    0.1538    1.4082   -0.2451 C   0  0  0  0  0  0
   -1.1648    1.9236   -0.2998 C   0  0  0  0  0  0
   -1.4529    3.2737   -0.3309 O   0  0  0  0  0  0
   -0.3782    4.1998   -0.2785 C   0  0  0  0  0  0
    1.7267   -0.4663   -0.1604 N   0  0  0  0  0  0
    2.7288    0.2276   -0.9600 C   0  0  0  0  0  0
    2.1244   -1.0168    1.1330 C   0  0  0  0  0  0
    2.4015    0.0685    2.1926 C   0  0  0  0  0  0
    2.5395    0.4699    4.6131 C   0  0  0  0  0  0
    4.0655   -1.1377    3.5746 C   0  0  0  0  0  0
   -0.4415   -2.2841   -0.3386 N   0  0  0  0  0  0
   -1.1648   -3.2732    0.2158 C   0  0  0  0  0  0
   -2.1887   -3.0933    0.8766 O   0  0  0  0  0  0
   -0.5544   -4.5644   -0.0502 C   0  0  0  0  0  0
   -1.1033   -5.6992    0.4158 C   0  0  0  0  0  0
    2.7252   -0.5100    3.5200 N   0  3  0  0  0  0
  -11.1799    4.6649   -1.6306 H   0  0  0  0  0  0
  -11.2663    2.9105   -1.9004 H   0  0  0  0  0  0
  -10.0099    3.8728   -2.7049 H   0  0  0  0  0  0
   -7.8208    3.5282   -1.6733 H   0  0  0  0  0  0
  -12.2729    3.5625    0.6536 H   0  0  0  0  0  0
  -12.4893    3.2252    3.1099 H   0  0  0  0  0  0
  -10.4544    2.8572    4.4914 H   0  0  0  0  0  0
   -8.2206    2.8300    3.4434 H   0  0  0  0  0  0
   -6.5038    4.2775    2.7625 H   0  0  0  0  0  0
   -4.0532    3.8807    3.2395 H   0  0  0  0  0  0
   -4.1310    0.9638   -1.0923 H   0  0  0  0  0  0
   -2.8511   -1.0427   -0.4311 H   0  0  0  0  0  0
    0.9961    2.0804   -0.1993 H   0  0  0  0  0  0
   -0.7778    5.2135   -0.3032 H   0  0  0  0  0  0
    0.2874    4.0879   -1.1355 H   0  0  0  0  0  0
    0.1953    4.0943    0.6434 H   0  0  0  0  0  0
    2.3299    0.4904   -1.9405 H   0  0  0  0  0  0
    3.5951   -0.4157   -1.1151 H   0  0  0  0  0  0
    3.0680    1.1400   -0.4696 H   0  0  0  0  0  0
    1.3541   -1.6942    1.5015 H   0  0  0  0  0  0
    3.0124   -1.6274    0.9714 H   0  0  0  0  0  0
    3.2078    0.7313    1.8759 H   0  0  0  0  0  0
    1.5102    0.6897    2.2927 H   0  0  0  0  0  0
    3.2233    1.3128    4.5032 H   0  0  0  0  0  0
    2.7219    0.0057    5.5829 H   0  0  0  0  0  0
    1.5194    0.8556    4.6202 H   0  0  0  0  0  0
    4.8496   -0.4036    3.3846 H   0  0  0  0  0  0
    4.1629   -1.9395    2.8433 H   0  0  0  0  0  0
    4.2424   -1.5753    4.5577 H   0  0  0  0  0  0
    0.4368   -2.5529   -0.7577 H   0  0  0  0  0  0
    0.3555   -4.6254   -0.6308 H   0  0  0  0  0  0
   -2.0121   -5.7017    1.0013 H   0  0  0  0  0  0
   -0.6421   -6.6545    0.2132 H   0  0  0  0  0  0
    2.0512   -1.2440    3.6861 H   0  0  0  0  0  0
  1  2  1  0  0  0
  1 38  1  0  0  0
  1 39  1  0  0  0
  1 40  1  0  0  0
  2  3  1  0  0  0
  2  6  1  0  0  0
  3  4  2  0  0  0
  3 41  1  0  0  0
  4  5  1  0  0  0
  4 11  1  0  0  0
  5  6  1  0  0  0
  5 10  2  0  0  0
  6  7  2  0  0  0
  7  8  1  0  0  0
  7 42  1  0  0  0
  8  9  2  0  0  0
  8 43  1  0  0  0
  9 10  1  0  0  0
  9 44  1  0  0  0
 10 45  1  0  0  0
 11 12  1  0  0  0
 11 16  2  0  0  0
 12 13  2  0  0  0
 12 46  1  0  0  0
 13 14  1  0  0  0
 13 47  1  0  0  0
 14 15  2  0  0  0
 15 16  1  0  0  0
 15 17  1  0  0  0
 17 18  1  0  0  0
 17 48  1  0  0  0
 18 19  1  0  0  0
 18 23  2  0  0  0
 19 20  2  0  0  0
 19 49  1  0  0  0
 20 21  1  0  0  0
 20 32  1  0  0  0
 21 22  2  0  0  0
 21 26  1  0  0  0
 22 23  1  0  0  0
 22 50  1  0  0  0
 23 24  1  0  0  0
 24 25  1  0  0  0
 25 51  1  0  0  0
 25 52  1  0  0  0
 25 53  1  0  0  0
 26 27  1  0  0  0
 26 28  1  0  0  0
 27 54  1  0  0  0
 27 55  1  0  0  0
 27 56  1  0  0  0
 28 29  1  0  0  0
 28 57  1  0  0  0
 28 58  1  0  0  0
 29 59  1  0  0  0
 29 60  1  0  0  0
 29 37  1  0  0  0
 30 61  1  0  0  0
 30 62  1  0  0  0
 30 63  1  0  0  0
 30 37  1  0  0  0
 31 64  1  0  0  0
 31 65  1  0  0  0
 31 66  1  0  0  0
 31 37  1  0  0  0
 32 33  1  0  0  0
 32 67  1  0  0  0
 33 34  2  0  0  0
 33 35  1  0  0  0
 35 36  2  0  0  0
 35 68  1  0  0  0
 36 69  1  0  0  0
 36 70  1  0  0  0
 37 71  1  0  0  0
M  CHG  1  37   1
M  END
> <s_m_entry_id>
20

> <i_f3d_flags>
0

> <r_lp_tautomer_probability>
0.999999987636

> <r_epik_Ionization_Penalty>
  0.0134

> <r_epik_State_Penalty>
  0.0077

> <i_epik_Tot_Q>
1

> <s_pdb_PDB_TITLE>
Osimertinib

> <s_m_Source_Path>
/media/4tb_disk1/SijieChen/TKI/pharmacophore_hypothesis-2/ligprep57_mae/active_less_than_50

> <s_m_Source_File>
Osimertinib.mae

> <i_m_Source_File_Index>
1

$$$$
Olmutinib
                    3D
 Structure written by MMmdl.
 62 66  0  0  1  0            999 V2000
   -1.9694    7.9071   -3.7424 C   0  0  0  0  0  0
   -1.2245    6.9954   -1.5820 C   0  0  0  0  0  0
   -1.6440    6.1797   -0.3427 C   0  0  0  0  0  0
   -2.2209    4.8915   -0.7208 N   0  0  0  0  0  0
   -3.3122    4.9712   -1.6880 C   0  0  0  0  0  0
   -2.8759    5.7623   -2.9352 C   0  0  0  0  0  0
   -1.4015    3.7434   -0.7743 C   0  0  0  0  0  0
   -1.9878    2.4587   -0.6937 C   0  0  0  0  0  0
   -1.1926    1.2960   -0.7221 C   0  0  0  0  0  0
    0.2082    1.3922   -0.8318 C   0  0  0  0  0  0
    0.7977    2.6701   -0.9434 C   0  0  0  0  0  0
    0.0050    3.8303   -0.9000 C   0  0  0  0  0  0
    0.9757    0.2176   -0.8409 N   0  0  0  0  0  0
    2.2123   -0.1105   -0.3095 C   0  0  0  0  0  0
    2.5978   -1.3795   -0.5057 N   0  0  0  0  0  0
    3.8040   -1.7012   -0.0054 C   0  0  0  0  0  0
    4.4732   -2.9843   -0.0691 C   0  0  0  0  0  0
    5.7019   -2.9522    0.5444 C   0  0  0  0  0  0
    6.1273   -1.4101    1.2246 S   0  0  0  0  0  0
    4.6005   -0.7313    0.6855 C   0  0  0  0  0  0
    4.0903    0.5684    0.8362 C   0  0  0  0  0  0
    2.8716    0.8552    0.3336 N   0  0  0  0  0  0
    4.8086    1.5584    1.4773 O   0  0  0  0  0  0
    4.2722    2.8186    1.6008 C   0  0  0  0  0  0
    3.7505    3.2372    2.8403 C   0  0  0  0  0  0
    3.1765    4.5163    2.9670 C   0  0  0  0  0  0
    3.1103    5.3770    1.8541 C   0  0  0  0  0  0
    3.6221    4.9610    0.6010 C   0  0  0  0  0  0
    4.2278    3.6918    0.4926 C   0  0  0  0  0  0
    3.5890    5.7683   -0.5687 N   0  0  0  0  0  0
    2.7216    6.7466   -0.8901 C   0  0  0  0  0  0
    1.7877    7.1135   -0.1753 O   0  0  0  0  0  0
    3.0240    7.2852   -2.2052 C   0  0  0  0  0  0
    2.2635    8.2499   -2.7509 C   0  0  0  0  0  0
   -2.3338    7.0939   -2.5627 N   0  3  0  0  0  0
   -1.1592    7.4398   -4.3040 H   0  0  0  0  0  0
   -1.6438    8.9022   -3.4374 H   0  0  0  0  0  0
   -2.8249    8.0259   -4.4080 H   0  0  0  0  0  0
   -0.9146    7.9944   -1.2736 H   0  0  0  0  0  0
   -0.3639    6.5365   -2.0691 H   0  0  0  0  0  0
   -0.8071    6.0518    0.3445 H   0  0  0  0  0  0
   -2.4020    6.7332    0.2127 H   0  0  0  0  0  0
   -3.6677    3.9849   -1.9853 H   0  0  0  0  0  0
   -4.1561    5.4699   -1.2101 H   0  0  0  0  0  0
   -2.1163    5.2024   -3.4835 H   0  0  0  0  0  0
   -3.7263    5.8863   -3.6067 H   0  0  0  0  0  0
   -3.0573    2.3525   -0.5857 H   0  0  0  0  0  0
   -1.6648    0.3274   -0.6440 H   0  0  0  0  0  0
    1.8651    2.7793   -1.0604 H   0  0  0  0  0  0
    0.5052    4.7816   -0.9747 H   0  0  0  0  0  0
    0.4674   -0.5889   -1.1735 H   0  0  0  0  0  0
    4.0479   -3.8549   -0.5463 H   0  0  0  0  0  0
    6.4001   -3.7712    0.6354 H   0  0  0  0  0  0
    3.7864    2.5755    3.6932 H   0  0  0  0  0  0
    2.7825    4.8375    3.9200 H   0  0  0  0  0  0
    2.6731    6.3544    1.9875 H   0  0  0  0  0  0
    4.6295    3.3645   -0.4556 H   0  0  0  0  0  0
    4.2540    5.5163   -1.2856 H   0  0  0  0  0  0
    3.8718    6.9120   -2.7630 H   0  0  0  0  0  0
    1.4040    8.6636   -2.2427 H   0  0  0  0  0  0
    2.4977    8.6433   -3.7291 H   0  0  0  0  0  0
   -3.0829    7.5832   -2.0943 H   0  0  0  0  0  0
  1 36  1  0  0  0
  1 37  1  0  0  0
  1 38  1  0  0  0
  1 35  1  0  0  0
  2  3  1  0  0  0
  2 39  1  0  0  0
  2 40  1  0  0  0
  2 35  1  0  0  0
  3  4  1  0  0  0
  3 41  1  0  0  0
  3 42  1  0  0  0
  4  5  1  0  0  0
  4  7  1  0  0  0
  5  6  1  0  0  0
  5 43  1  0  0  0
  5 44  1  0  0  0
  6 45  1  0  0  0
  6 46  1  0  0  0
  6 35  1  0  0  0
  7  8  1  0  0  0
  7 12  2  0  0  0
  8  9  2  0  0  0
  8 47  1  0  0  0
  9 10  1  0  0  0
  9 48  1  0  0  0
 10 11  2  0  0  0
 10 13  1  0  0  0
 11 12  1  0  0  0
 11 49  1  0  0  0
 12 50  1  0  0  0
 13 14  1  0  0  0
 13 51  1  0  0  0
 14 15  1  0  0  0
 14 22  2  0  0  0
 15 16  2  0  0  0
 16 17  1  0  0  0
 16 20  1  0  0  0
 17 18  2  0  0  0
 17 52  1  0  0  0
 18 19  1  0  0  0
 18 53  1  0  0  0
 19 20  1  0  0  0
 20 21  2  0  0  0
 21 22  1  0  0  0
 21 23  1  0  0  0
 23 24  1  0  0  0
 24 25  1  0  0  0
 24 29  2  0  0  0
 25 26  2  0  0  0
 25 54  1  0  0  0
 26 27  1  0  0  0
 26 55  1  0  0  0
 27 28  2  0  0  0
 27 56  1  0  0  0
 28 29  1  0  0  0
 28 30  1  0  0  0
 29 57  1  0  0  0
 30 31  1  0  0  0
 30 58  1  0  0  0
 31 32  2  0  0  0
 31 33  1  0  0  0
 33 34  2  0  0  0
 33 59  1  0  0  0
 34 60  1  0  0  0
 34 61  1  0  0  0
 35 62  1  0  0  0
M  CHG  1  35   1
M  END
> <s_m_entry_id>
21

> <i_f3d_flags>
0

> <r_lp_tautomer_probability>
1

> <r_epik_Ionization_Penalty>
  0.0809

> <r_epik_State_Penalty>
  0.4007

> <i_epik_Tot_Q>
1

> <s_pdb_PDB_TITLE>
Olmutinib

> <s_m_Source_Path>
/media/4tb_disk1/SijieChen/TKI/pharmacophore_hypothesis-2/ligprep57_mae/active_less_than_50

> <s_m_Source_File>
Olmutinib.mae

> <i_m_Source_File_Index>
1

$$$$
Nintedanib
                    3D
 Structure written by MMmdl.
 74 78  0  0  1  0            999 V2000
   -5.9540   -2.9538    2.1737 C   0  0  0  0  0  0
   -5.4079   -2.1040   -0.0466 C   0  0  0  0  0  0
   -4.5288   -0.9034    0.3623 C   0  0  0  0  0  0
   -2.9975   -2.4330    1.4664 C   0  0  0  0  0  0
   -3.8960   -3.6143    1.0434 C   0  0  0  0  0  0
   -2.2021   -0.1796    0.7821 C   0  0  0  0  0  0
   -0.7456   -0.4327    0.3445 C   0  0  0  0  0  0
   -0.5031   -1.4356   -0.3314 O   0  0  0  0  0  0
    0.2124    0.4688    0.6868 N   0  0  0  0  0  0
   -0.1395    1.7249    1.3601 C   0  0  0  0  0  0
    1.5779    0.2796    0.3125 C   0  0  0  0  0  0
    2.2636   -0.9140    0.6359 C   0  0  0  0  0  0
    3.6106   -1.0847    0.2644 C   0  0  0  0  0  0
    4.2955   -0.0756   -0.4420 C   0  0  0  0  0  0
    3.6204    1.1308   -0.7355 C   0  0  0  0  0  0
    2.2734    1.3052   -0.3653 C   0  0  0  0  0  0
    5.6390   -0.3077   -0.7767 N   0  0  0  0  0  0
    6.4462    0.3025   -1.7346 C   0  0  0  0  0  0
    7.7788    0.4681   -1.5169 C   0  0  0  0  0  0
    8.5716    0.1259   -0.3238 C   0  0  0  0  0  0
    8.2339   -0.4354    0.9239 C   0  0  0  0  0  0
    9.2609   -0.6383    1.8740 C   0  0  0  0  0  0
   10.6110   -0.2862    1.5897 C   0  0  0  0  0  0
   10.9270    0.2814    0.3302 C   0  0  0  0  0  0
    9.8853    0.4702   -0.5913 C   0  0  0  0  0  0
    9.9555    1.0015   -1.8765 N   0  0  0  0  0  0
    8.7547    1.0123   -2.4777 C   0  0  0  0  0  0
    8.5806    1.3892   -3.6352 O   0  0  0  0  0  0
   11.7045   -0.5004    2.5813 C   0  0  0  0  0  0
   12.8827   -0.2089    2.3655 O   0  0  0  0  0  0
   11.2706   -1.0468    3.7348 O   0  0  0  0  0  0
   12.1918   -1.3223    4.7766 C   0  0  0  0  0  0
    5.7507    0.7095   -2.9784 C   0  0  0  0  0  0
    5.6763    2.0674   -3.3649 C   0  0  0  0  0  0
    4.9927    2.4416   -4.5376 C   0  0  0  0  0  0
    4.3718    1.4608   -5.3336 C   0  0  0  0  0  0
    4.4345    0.1068   -4.9545 C   0  0  0  0  0  0
    5.1193   -0.2657   -3.7817 C   0  0  0  0  0  0
   -5.2977   -3.2172    0.8978 N   0  0  0  0  0  0
   -3.1117   -1.3186    0.4913 N   0  3  0  0  0  0
   -5.9079   -3.8382    2.8100 H   0  0  0  0  0  0
   -7.0064   -2.7168    2.0147 H   0  0  0  0  0  0
   -5.5007   -2.1251    2.7165 H   0  0  0  0  0  0
   -6.4514   -1.7998   -0.1363 H   0  0  0  0  0  0
   -5.1042   -2.4567   -1.0333 H   0  0  0  0  0  0
   -4.6117   -0.1297   -0.4018 H   0  0  0  0  0  0
   -4.8754   -0.4582    1.2957 H   0  0  0  0  0  0
   -3.2536   -2.0841    2.4674 H   0  0  0  0  0  0
   -1.9645   -2.7772    1.5179 H   0  0  0  0  0  0
   -3.5478   -4.0122    0.0893 H   0  0  0  0  0  0
   -3.8183   -4.4291    1.7644 H   0  0  0  0  0  0
   -2.2584    0.0543    1.8457 H   0  0  0  0  0  0
   -2.5488    0.7019    0.2407 H   0  0  0  0  0  0
    0.7410    2.3249    1.5935 H   0  0  0  0  0  0
   -0.6380    1.5391    2.3117 H   0  0  0  0  0  0
   -0.7929    2.3341    0.7343 H   0  0  0  0  0  0
    1.7620   -1.7046    1.1748 H   0  0  0  0  0  0
    4.1168   -2.0049    0.5182 H   0  0  0  0  0  0
    4.1254    1.9439   -1.2307 H   0  0  0  0  0  0
    1.7776    2.2331   -0.6111 H   0  0  0  0  0  0
    6.1047   -0.9794   -0.1838 H   0  0  0  0  0  0
    7.2210   -0.7103    1.1718 H   0  0  0  0  0  0
    8.9890   -1.0704    2.8259 H   0  0  0  0  0  0
   11.9374    0.5642    0.0719 H   0  0  0  0  0  0
   10.8215    1.3089   -2.2949 H   0  0  0  0  0  0
   11.6660   -1.7419    5.6341 H   0  0  0  0  0  0
   12.6985   -0.4122    5.0998 H   0  0  0  0  0  0
   12.9421   -2.0438    4.4509 H   0  0  0  0  0  0
    6.1450    2.8272   -2.7568 H   0  0  0  0  0  0
    4.9435    3.4813   -4.8251 H   0  0  0  0  0  0
    3.8466    1.7468   -6.2327 H   0  0  0  0  0  0
    3.9562   -0.6469   -5.5625 H   0  0  0  0  0  0
    5.1585   -1.3072   -3.4973 H   0  0  0  0  0  0
   -2.8367   -1.6830   -0.4100 H   0  0  0  0  0  0
  1 41  1  0  0  0
  1 42  1  0  0  0
  1 43  1  0  0  0
  1 39  1  0  0  0
  2  3  1  0  0  0
  2 44  1  0  0  0
  2 45  1  0  0  0
  2 39  1  0  0  0
  3 46  1  0  0  0
  3 47  1  0  0  0
  3 40  1  0  0  0
  4  5  1  0  0  0
  4 48  1  0  0  0
  4 49  1  0  0  0
  4 40  1  0  0  0
  5 50  1  0  0  0
  5 51  1  0  0  0
  5 39  1  0  0  0
  6  7  1  0  0  0
  6 52  1  0  0  0
  6 53  1  0  0  0
  6 40  1  0  0  0
  7  8  2  0  0  0
  7  9  1  0  0  0
  9 10  1  0  0  0
  9 11  1  0  0  0
 10 54  1  0  0  0
 10 55  1  0  0  0
 10 56  1  0  0  0
 11 12  1  0  0  0
 11 16  2  0  0  0
 12 13  2  0  0  0
 12 57  1  0  0  0
 13 14  1  0  0  0
 13 58  1  0  0  0
 14 15  2  0  0  0
 14 17  1  0  0  0
 15 16  1  0  0  0
 15 59  1  0  0  0
 16 60  1  0  0  0
 17 18  1  0  0  0
 17 61  1  0  0  0
 18 19  2  0  0  0
 18 33  1  0  0  0
 19 20  1  0  0  0
 19 27  1  0  0  0
 20 21  1  0  0  0
 20 25  2  0  0  0
 21 22  2  0  0  0
 21 62  1  0  0  0
 22 23  1  0  0  0
 22 63  1  0  0  0
 23 24  2  0  0  0
 23 29  1  0  0  0
 24 25  1  0  0  0
 24 64  1  0  0  0
 25 26  1  0  0  0
 26 27  1  0  0  0
 26 65  1  0  0  0
 27 28  2  0  0  0
 29 30  2  0  0  0
 29 31  1  0  0  0
 31 32  1  0  0  0
 32 66  1  0  0  0
 32 67  1  0  0  0
 32 68  1  0  0  0
 33 34  1  0  0  0
 33 38  2  0  0  0
 34 35  2  0  0  0
 34 69  1  0  0  0
 35 36  1  0  0  0
 35 70  1  0  0  0
 36 37  2  0  0  0
 36 71  1  0  0  0
 37 38  1  0  0  0
 37 72  1  0  0  0
 38 73  1  0  0  0
 40 74  1  0  0  0
M  CHG  1  40   1
M  END
> <s_m_entry_id>
22

> <i_f3d_flags>
0

> <r_lp_tautomer_probability>
0.499999999999422

> <r_epik_Ionization_Penalty>
  0.0410

> <r_epik_State_Penalty>
  0.8233

> <i_epik_Tot_Q>
1

> <s_pdb_PDB_TITLE>
Nintedanib

> <s_m_Source_Path>
/media/4tb_disk1/SijieChen/TKI/pharmacophore_hypothesis-2/ligprep57_mae/active_less_than_50

> <s_m_Source_File>
Nintedanib.mae

> <i_m_Source_File_Index>
1

$$$$
Nilotinib
                    3D
 Structure written by MMmdl.
 61 65  0  0  1  0            999 V2000
   -4.5575    0.0362   -0.5536 C   0  0  0  0  0  0
   -3.0528   -0.0240   -0.3520 C   0  0  0  0  0  0
   -2.3826   -1.2545   -0.5133 C   0  0  0  0  0  0
   -0.9905   -1.3417   -0.3242 C   0  0  0  0  0  0
   -0.2440   -0.1899    0.0113 C   0  0  0  0  0  0
   -0.9188    1.0386    0.1733 C   0  0  0  0  0  0
   -2.3188    1.1313    0.0083 C   0  0  0  0  0  0
   -2.9764    2.3587    0.1814 N   0  0  0  0  0  0
   -2.8472    3.3738    1.1125 C   0  0  0  0  0  0
   -3.7045    4.3880    0.9883 N   0  0  0  0  0  0
   -3.5971    5.3886    1.8884 C   0  0  0  0  0  0
   -2.6313    5.3674    2.9152 C   0  0  0  0  0  0
   -1.7746    4.2426    2.9643 C   0  0  0  0  0  0
   -1.9042    3.2520    2.0513 N   0  0  0  0  0  0
   -0.7121    4.0667    3.9800 C   0  0  0  0  0  0
    0.4141    3.2391    3.7487 C   0  0  0  0  0  0
    1.4013    3.1043    4.7431 C   0  0  0  0  0  0
    1.2344    3.8079    5.9495 C   0  0  0  0  0  0
    0.1745    4.6040    6.1960 N   0  0  0  0  0  0
   -0.7651    4.7234    5.2329 C   0  0  0  0  0  0
    1.2396   -0.2578    0.2413 C   0  0  0  0  0  0
    1.7816    0.5200    1.0278 O   0  0  0  0  0  0
    1.8927   -1.1817   -0.4894 N   0  0  0  0  0  0
    3.2859   -1.4567   -0.4972 C   0  0  0  0  0  0
    3.6920   -2.7808   -0.7570 C   0  0  0  0  0  0
    5.0619   -3.1192   -0.7933 C   0  0  0  0  0  0
    6.0301   -2.1172   -0.5733 C   0  0  0  0  0  0
    5.6381   -0.7793   -0.3429 C   0  0  0  0  0  0
    4.2658   -0.4548   -0.3061 C   0  0  0  0  0  0
    6.5925    0.2457   -0.1353 N   0  0  0  0  0  0
    6.5441    1.4041    0.6260 C   0  0  0  0  0  0
    7.7543    2.0310    0.4245 C   0  0  0  0  0  0
    7.7835    0.2314   -0.7526 C   0  0  0  0  0  0
    8.2475    3.3202    1.0007 C   0  0  0  0  0  0
    5.4958   -4.5552   -1.0454 C   0  0  0  0  0  0
    6.6394   -4.5877   -1.7302 F   0  0  0  0  0  0
    5.6769   -5.1690    0.1230 F   0  0  0  0  0  0
    4.5742   -5.2208   -1.7422 F   0  0  0  0  0  0
    8.5390    1.2812   -0.4546 N   0  0  0  0  0  0
   -4.8067    0.7305   -1.3564 H   0  0  0  0  0  0
   -5.0501    0.3724    0.3592 H   0  0  0  0  0  0
   -4.9647   -0.9407   -0.8155 H   0  0  0  0  0  0
   -2.9367   -2.1436   -0.7766 H   0  0  0  0  0  0
   -0.5080   -2.3015   -0.4387 H   0  0  0  0  0  0
   -0.3515    1.9232    0.4243 H   0  0  0  0  0  0
   -3.8106    2.4474   -0.3799 H   0  0  0  0  0  0
   -4.2849    6.2151    1.7879 H   0  0  0  0  0  0
   -2.5571    6.1826    3.6191 H   0  0  0  0  0  0
    0.5323    2.7079    2.8155 H   0  0  0  0  0  0
    2.2654    2.4768    4.5826 H   0  0  0  0  0  0
    1.9706    3.7300    6.7357 H   0  0  0  0  0  0
   -1.5962    5.3641    5.4866 H   0  0  0  0  0  0
    1.3161   -1.8093   -1.0308 H   0  0  0  0  0  0
    2.9443   -3.5446   -0.9153 H   0  0  0  0  0  0
    7.0764   -2.3846   -0.5802 H   0  0  0  0  0  0
    3.9763    0.5729   -0.1473 H   0  0  0  0  0  0
    5.6885    1.6778    1.2261 H   0  0  0  0  0  0
    8.1089   -0.5385   -1.4370 H   0  0  0  0  0  0
    7.5185    3.7543    1.6852 H   0  0  0  0  0  0
    8.4405    4.0523    0.2163 H   0  0  0  0  0  0
    9.1750    3.1741    1.5547 H   0  0  0  0  0  0
  1  2  1  0  0  0
  1 40  1  0  0  0
  1 41  1  0  0  0
  1 42  1  0  0  0
  2  3  1  0  0  0
  2  7  2  0  0  0
  3  4  2  0  0  0
  3 43  1  0  0  0
  4  5  1  0  0  0
  4 44  1  0  0  0
  5  6  2  0  0  0
  5 21  1  0  0  0
  6  7  1  0  0  0
  6 45  1  0  0  0
  7  8  1  0  0  0
  8  9  1  0  0  0
  8 46  1  0  0  0
  9 10  1  0  0  0
  9 14  2  0  0  0
 10 11  2  0  0  0
 11 12  1  0  0  0
 11 47  1  0  0  0
 12 13  2  0  0  0
 12 48  1  0  0  0
 13 14  1  0  0  0
 13 15  1  0  0  0
 15 16  1  0  0  0
 15 20  2  0  0  0
 16 17  2  0  0  0
 16 49  1  0  0  0
 17 18  1  0  0  0
 17 50  1  0  0  0
 18 19  2  0  0  0
 18 51  1  0  0  0
 19 20  1  0  0  0
 20 52  1  0  0  0
 21 22  2  0  0  0
 21 23  1  0  0  0
 23 24  1  0  0  0
 23 53  1  0  0  0
 24 25  1  0  0  0
 24 29  2  0  0  0
 25 26  2  0  0  0
 25 54  1  0  0  0
 26 27  1  0  0  0
 26 35  1  0  0  0
 27 28  2  0  0  0
 27 55  1  0  0  0
 28 29  1  0  0  0
 28 30  1  0  0  0
 29 56  1  0  0  0
 30 31  1  0  0  0
 30 33  1  0  0  0
 31 32  2  0  0  0
 31 57  1  0  0  0
 32 34  1  0  0  0
 32 39  1  0  0  0
 33 58  1  0  0  0
 33 39  2  0  0  0
 34 59  1  0  0  0
 34 60  1  0  0  0
 34 61  1  0  0  0
 35 36  1  0  0  0
 35 37  1  0  0  0
 35 38  1  0  0  0
M  END
> <s_m_entry_id>
23

> <i_f3d_flags>
0

> <r_lp_tautomer_probability>
0.999999987636

> <r_epik_Ionization_Penalty>
  0.1509

> <r_epik_State_Penalty>
  0.1396

> <i_epik_Tot_Q>
0

> <s_pdb_PDB_TITLE>
Nilotinib

> <s_m_Source_Path>
/media/4tb_disk1/SijieChen/TKI/pharmacophore_hypothesis-2/ligprep57_mae/active_less_than_50

> <s_m_Source_File>
Nilotinib.mae

> <i_m_Source_File_Index>
1

$$$$
Neratinib
                    3D
 Structure written by MMmdl.
 70 73  0  0  1  0            999 V2000
    0.6741   -4.6043   -0.4156 C   0  0  0  0  0  0
   -0.5206   -3.6599   -0.2640 C   0  0  0  0  0  0
   -0.0352   -2.3286   -0.1611 O   0  0  0  0  0  0
   -0.9455   -1.3006   -0.0125 C   0  0  0  0  0  0
   -2.3466   -1.4955    0.0461 C   0  0  0  0  0  0
   -3.2415   -0.4174    0.2050 C   0  0  0  0  0  0
   -2.7170    0.9002    0.3158 C   0  0  0  0  0  0
   -1.3181    1.1006    0.2555 C   0  0  0  0  0  0
   -0.4349    0.0120    0.0775 C   0  0  0  0  0  0
    0.9771    0.1754    0.0365 N   0  0  0  0  0  0
    1.6859    1.2209   -0.4264 C   0  0  0  0  0  0
    1.1892    2.2362   -0.9163 O   0  0  0  0  0  0
    3.1102    0.9697   -0.2886 C   0  0  0  0  0  0
    4.0183    1.8624   -0.7236 C   0  0  0  0  0  0
    5.5190    1.6716   -0.6112 C   0  0  0  0  0  0
    7.5173    0.9217   -1.8254 C   0  0  0  0  0  0
    6.1205    2.6846   -2.7946 C   0  0  0  0  0  0
   -3.6176    1.9884    0.4783 C   0  0  0  0  0  0
   -5.0079    1.7045    0.5443 C   0  0  0  0  0  0
   -5.4204    0.3647    0.4204 C   0  0  0  0  0  0
   -4.5683   -0.6646    0.2536 N   0  0  0  0  0  0
   -6.0215    2.7310    0.7590 C   0  0  0  0  0  0
   -6.8255    3.5457    0.9284 N   0  0  0  0  0  0
   -3.1264    3.3013    0.5969 N   0  0  0  0  0  0
   -3.2396    4.3222   -0.3577 C   0  0  0  0  0  0
   -2.6111    5.5558   -0.1007 C   0  0  0  0  0  0
   -2.6884    6.6077   -1.0335 C   0  0  0  0  0  0
   -3.3977    6.4417   -2.2496 C   0  0  0  0  0  0
   -4.0212    5.2008   -2.5053 C   0  0  0  0  0  0
   -3.9411    4.1499   -1.5712 C   0  0  0  0  0  0
   -4.8929    4.9528   -3.9757 Cl  0  0  0  0  0  0
   -3.5180    7.4237   -3.2110 O   0  0  0  0  0  0
   -2.8940    8.6794   -2.9804 C   0  0  0  0  0  0
   -3.1429    9.6330   -4.1320 C   0  0  0  0  0  0
   -4.3880   10.2835   -4.2647 C   0  0  0  0  0  0
   -4.5766   11.1563   -5.3539 C   0  0  0  0  0  0
   -3.5179   11.3436   -6.2635 C   0  0  0  0  0  0
   -2.3133   10.6460   -6.0431 C   0  0  0  0  0  0
   -2.1225    9.8067   -5.0023 N   0  0  0  0  0  0
    6.1499    1.4748   -1.9398 N   0  3  0  0  0  0
    0.3440   -5.6402   -0.4964 H   0  0  0  0  0  0
    1.3417   -4.5321    0.4433 H   0  0  0  0  0  0
    1.2506   -4.3659   -1.3097 H   0  0  0  0  0  0
   -1.1767   -3.7599   -1.1299 H   0  0  0  0  0  0
   -1.0871   -3.9291    0.6288 H   0  0  0  0  0  0
   -2.7699   -2.4856   -0.0285 H   0  0  0  0  0  0
   -0.9163    2.0962    0.3593 H   0  0  0  0  0  0
    1.5114   -0.6368    0.3096 H   0  0  0  0  0  0
    3.4517    0.0519    0.1702 H   0  0  0  0  0  0
    3.6945    2.7852   -1.1844 H   0  0  0  0  0  0
    5.9608    2.5290   -0.1013 H   0  0  0  0  0  0
    5.7110    0.7981    0.0140 H   0  0  0  0  0  0
    8.1785    1.6186   -1.3082 H   0  0  0  0  0  0
    7.9363    0.7199   -2.8118 H   0  0  0  0  0  0
    7.5110   -0.0183   -1.2727 H   0  0  0  0  0  0
    6.6607    3.5083   -2.3261 H   0  0  0  0  0  0
    5.0995    3.0113   -2.9900 H   0  0  0  0  0  0
    6.5831    2.4818   -3.7611 H   0  0  0  0  0  0
   -6.4677    0.1020    0.4656 H   0  0  0  0  0  0
   -2.3355    3.4044    1.2165 H   0  0  0  0  0  0
   -2.0642    5.7035    0.8193 H   0  0  0  0  0  0
   -2.1921    7.5346   -0.7901 H   0  0  0  0  0  0
   -4.4222    3.2112   -1.8019 H   0  0  0  0  0  0
   -3.2878    9.1330   -2.0693 H   0  0  0  0  0  0
   -1.8185    8.5464   -2.8465 H   0  0  0  0  0  0
   -5.1806   10.1144   -3.5504 H   0  0  0  0  0  0
   -5.5160   11.6714   -5.4895 H   0  0  0  0  0  0
   -3.6267   12.0052   -7.1101 H   0  0  0  0  0  0
   -1.4811   10.7656   -6.7210 H   0  0  0  0  0  0
    5.6023    0.7710   -2.4146 H   0  0  0  0  0  0
  1  2  1  0  0  0
  1 41  1  0  0  0
  1 42  1  0  0  0
  1 43  1  0  0  0
  2  3  1  0  0  0
  2 44  1  0  0  0
  2 45  1  0  0  0
  3  4  1  0  0  0
  4  5  1  0  0  0
  4  9  2  0  0  0
  5  6  2  0  0  0
  5 46  1  0  0  0
  6  7  1  0  0  0
  6 21  1  0  0  0
  7  8  2  0  0  0
  7 18  1  0  0  0
  8  9  1  0  0  0
  8 47  1  0  0  0
  9 10  1  0  0  0
 10 11  1  0  0  0
 10 48  1  0  0  0
 11 12  2  0  0  0
 11 13  1  0  0  0
 13 14  2  0  0  0
 13 49  1  0  0  0
 14 15  1  0  0  0
 14 50  1  0  0  0
 15 51  1  0  0  0
 15 52  1  0  0  0
 15 40  1  0  0  0
 16 53  1  0  0  0
 16 54  1  0  0  0
 16 55  1  0  0  0
 16 40  1  0  0  0
 17 56  1  0  0  0
 17 57  1  0  0  0
 17 58  1  0  0  0
 17 40  1  0  0  0
 18 19  2  0  0  0
 18 24  1  0  0  0
 19 20  1  0  0  0
 19 22  1  0  0  0
 20 21  2  0  0  0
 20 59  1  0  0  0
 22 23  3  0  0  0
 24 25  1  0  0  0
 24 60  1  0  0  0
 25 26  2  0  0  0
 25 30  1  0  0  0
 26 27  1  0  0  0
 26 61  1  0  0  0
 27 28  2  0  0  0
 27 62  1  0  0  0
 28 29  1  0  0  0
 28 32  1  0  0  0
 29 30  2  0  0  0
 29 31  1  0  0  0
 30 63  1  0  0  0
 32 33  1  0  0  0
 33 34  1  0  0  0
 33 64  1  0  0  0
 33 65  1  0  0  0
 34 35  1  0  0  0
 34 39  2  0  0  0
 35 36  2  0  0  0
 35 66  1  0  0  0
 36 37  1  0  0  0
 36 67  1  0  0  0
 37 38  2  0  0  0
 37 68  1  0  0  0
 38 39  1  0  0  0
 38 69  1  0  0  0
 40 70  1  0  0  0
M  CHG  1  40   1
M  END
> <s_m_entry_id>
24

> <i_f3d_flags>
0

> <r_epik_Ionization_Penalty>
  0.1681

> <r_epik_State_Penalty>
  0.1823

> <i_epik_Tot_Q>
1

> <s_pdb_PDB_TITLE>
Neratinib

> <s_m_Source_Path>
/media/4tb_disk1/SijieChen/TKI/pharmacophore_hypothesis-2/ligprep57_mae/active_less_than_50

> <s_m_Source_File>
Neratinib.mae

> <i_m_Source_File_Index>
1

$$$$
Lorlatinib
                    3D
 Structure written by MMmdl.
 49 52  0  0  1  0            999 V2000
    0.1359   -0.1733   -0.4191 C   0  0  0  0  0  0
    1.6247   -0.1041   -0.0410 C   0  0  1  0  0  0
    1.8762    0.7300    1.2279 C   0  0  0  0  0  0
    1.1005    0.4325    2.3735 C   0  0  0  0  0  0
    1.2430    1.1667    3.5637 C   0  0  0  0  0  0
    2.1715    2.2169    3.6299 C   0  0  0  0  0  0
    2.9704    2.5114    2.5121 C   0  0  0  0  0  0
    2.8596    1.7638    1.3159 C   0  0  0  0  0  0
    3.7793    2.1104    0.1714 C   0  0  0  0  0  0
    3.2895    2.5420   -0.8727 O   0  0  0  0  0  0
    5.1165    1.9197    0.3427 N   0  0  0  0  0  0
    6.0921    2.2620   -0.7055 C   0  0  0  0  0  0
    6.8054    1.1074   -1.3915 C   0  0  0  0  0  0
    6.6779   -0.3203   -1.3108 C   0  0  0  0  0  0
    7.6426   -0.7931   -2.1538 C   0  0  0  0  0  0
    8.2991    0.2830   -2.7063 N   0  0  0  0  0  0
    7.7806    1.4404   -2.2353 N   0  0  0  0  0  0
    9.3899    0.3164   -3.6631 C   0  0  0  0  0  0
    7.9304   -2.1422   -2.4446 C   0  0  0  0  0  0
    8.1667   -3.2495   -2.6829 N   0  0  0  0  0  0
    5.7295   -1.1101   -0.5080 C   0  0  0  0  0  0
    4.3430   -0.9671   -0.6925 C   0  0  0  0  0  0
    3.4432   -1.6381    0.1656 C   0  0  0  0  0  0
    3.9897   -2.5279    1.1159 C   0  0  0  0  0  0
    6.1587   -2.0166    0.4844 C   0  0  0  0  0  0
    3.1568   -3.2417    1.9750 N   0  0  0  0  0  0
    2.0800   -1.4495    0.1084 O   0  0  0  0  0  0
    5.7212    1.4146    1.5824 C   0  0  0  0  0  0
    0.4812    0.8658    4.6418 F   0  0  0  0  0  0
    5.3166   -2.7211    1.2697 N   0  0  0  0  0  0
   -0.2826    0.8258   -0.5437 H   0  0  0  0  0  0
   -0.4606   -0.6979    0.3265 H   0  0  0  0  0  0
    0.0050   -0.7032   -1.3630 H   0  0  0  0  0  0
    2.0853    0.3556   -0.9088 H   0  0  0  0  0  0
    0.3796   -0.3704    2.3506 H   0  0  0  0  0  0
    2.2776    2.7911    4.5386 H   0  0  0  0  0  0
    3.6848    3.3190    2.5825 H   0  0  0  0  0  0
    5.6433    2.8988   -1.4693 H   0  0  0  0  0  0
    6.8392    2.9050   -0.2375 H   0  0  0  0  0  0
   10.1974   -0.3339   -3.3255 H   0  0  0  0  0  0
    9.7774    1.3306   -3.7685 H   0  0  0  0  0  0
    9.0348   -0.0294   -4.6342 H   0  0  0  0  0  0
    3.9935   -0.3045   -1.4687 H   0  0  0  0  0  0
    7.2126   -2.1711    0.6635 H   0  0  0  0  0  0
    2.1518   -3.1626    1.9175 H   0  0  0  0  0  0
    3.5307   -3.8853    2.6571 H   0  0  0  0  0  0
    5.1647    0.5703    1.9920 H   0  0  0  0  0  0
    5.7651    2.2010    2.3356 H   0  0  0  0  0  0
    6.7429    1.0685    1.4218 H   0  0  0  0  0  0
  1  2  1  0  0  0
  1 31  1  0  0  0
  1 32  1  0  0  0
  1 33  1  0  0  0
  2  3  1  0  0  0
  2 27  1  0  0  0
  2 34  1  0  0  0
  3  4  2  0  0  0
  3  8  1  0  0  0
  4  5  1  0  0  0
  4 35  1  0  0  0
  5  6  2  0  0  0
  5 29  1  0  0  0
  6  7  1  0  0  0
  6 36  1  0  0  0
  7  8  2  0  0  0
  7 37  1  0  0  0
  8  9  1  0  0  0
  9 10  2  0  0  0
  9 11  1  0  0  0
 11 12  1  0  0  0
 11 28  1  0  0  0
 12 13  1  0  0  0
 12 38  1  0  0  0
 12 39  1  0  0  0
 13 14  1  0  0  0
 13 17  2  0  0  0
 14 15  2  0  0  0
 14 21  1  0  0  0
 15 16  1  0  0  0
 15 19  1  0  0  0
 16 17  1  0  0  0
 16 18  1  0  0  0
 18 40  1  0  0  0
 18 41  1  0  0  0
 18 42  1  0  0  0
 19 20  3  0  0  0
 21 22  2  0  0  0
 21 25  1  0  0  0
 22 23  1  0  0  0
 22 43  1  0  0  0
 23 24  2  0  0  0
 23 27  1  0  0  0
 24 26  1  0  0  0
 24 30  1  0  0  0
 25 44  1  0  0  0
 25 30  2  0  0  0
 26 45  1  0  0  0
 26 46  1  0  0  0
 28 47  1  0  0  0
 28 48  1  0  0  0
 28 49  1  0  0  0
M  END
> <s_m_entry_id>
25

> <i_f3d_flags>
0

> <r_lp_tautomer_probability>
0.999999404453161

> <r_epik_Ionization_Penalty>
  0.3417

> <r_epik_State_Penalty>
  0.3362

> <i_epik_Tot_Q>
0

> <s_pdb_PDB_TITLE>
Lorlatinib

> <s_m_Source_Path>
/media/4tb_disk1/SijieChen/TKI/pharmacophore_hypothesis-2/ligprep57_mae/active_less_than_50

> <s_m_Source_File>
Lorlatinib.mae

> <i_m_Source_File_Index>
1

$$$$
Lenvatinib
                    3D
 Structure written by MMmdl.
 49 52  0  0  1  0            999 V2000
   -4.1828    4.8250    0.0133 C   0  0  0  0  0  0
   -2.7634    4.7801    0.0139 O   0  0  0  0  0  0
   -2.1357    3.5494   -0.0196 C   0  0  0  0  0  0
   -2.8494    2.3238   -0.0444 C   0  0  0  0  0  0
   -2.1930    1.0764   -0.0589 C   0  0  0  0  0  0
   -0.7729    1.0587   -0.0458 C   0  0  0  0  0  0
   -0.0518    2.2699   -0.0349 C   0  0  0  0  0  0
   -0.7174    3.5151   -0.0136 C   0  0  0  0  0  0
    0.0932    4.7840   -0.0214 C   0  0  0  0  0  0
   -0.2403    5.7639   -0.6851 O   0  0  0  0  0  0
    1.1751    4.7862    0.7635 N   0  0  0  0  0  0
   -0.1052   -0.1907   -0.0495 C   0  0  0  0  0  0
   -0.8774   -1.3672   -0.0953 C   0  0  0  0  0  0
   -2.2782   -1.2498   -0.1093 C   0  0  0  0  0  0
   -2.9201   -0.0642   -0.0865 N   0  0  0  0  0  0
    1.2646   -0.2853   -0.0258 O   0  0  0  0  0  0
    1.8971   -0.1657    1.1886 C   0  0  0  0  0  0
    3.0049    0.6967    1.2970 C   0  0  0  0  0  0
    3.6815    0.8398    2.5232 C   0  0  0  0  0  0
    3.2678    0.1051    3.6608 C   0  0  0  0  0  0
    2.1499   -0.7546    3.5526 C   0  0  0  0  0  0
    1.4774   -0.8943    2.3229 C   0  0  0  0  0  0
    1.5880   -1.6581    4.9160 Cl  0  0  0  0  0  0
    3.9018    0.2243    4.9294 N   0  0  0  0  0  0
    5.1751    0.5569    5.2033 C   0  0  0  0  0  0
    6.0326    0.8377    4.3658 O   0  0  0  0  0  0
    5.4075    0.5271    6.5227 N   0  0  0  0  0  0
    6.6582    0.8083    7.1506 C   0  0  0  0  0  0
    6.6303    1.4820    8.5058 C   0  0  0  0  0  0
    7.0067    0.0300    8.4012 C   0  0  0  0  0  0
   -4.5079    5.8647    0.0446 H   0  0  0  0  0  0
   -4.5995    4.3241    0.8882 H   0  0  0  0  0  0
   -4.5954    4.3786   -0.8926 H   0  0  0  0  0  0
   -3.9286    2.3123   -0.0518 H   0  0  0  0  0  0
    1.0274    2.2463   -0.0524 H   0  0  0  0  0  0
    1.4057    3.9664    1.3056 H   0  0  0  0  0  0
    1.7550    5.6112    0.8142 H   0  0  0  0  0  0
   -0.4055   -2.3386   -0.1097 H   0  0  0  0  0  0
   -2.9009   -2.1318   -0.1371 H   0  0  0  0  0  0
    3.3341    1.2602    0.4362 H   0  0  0  0  0  0
    4.5093    1.5304    2.5703 H   0  0  0  0  0  0
    0.6346   -1.5660    2.2570 H   0  0  0  0  0  0
    3.3422   -0.0652    5.7183 H   0  0  0  0  0  0
    4.6414    0.2818    7.1326 H   0  0  0  0  0  0
    7.4946    1.0709    6.5041 H   0  0  0  0  0  0
    7.4240    2.1926    8.7283 H   0  0  0  0  0  0
    5.6601    1.7177    8.9392 H   0  0  0  0  0  0
    6.2873   -0.7015    8.7645 H   0  0  0  0  0  0
    8.0521   -0.2302    8.5543 H   0  0  0  0  0  0
  1  2  1  0  0  0
  1 31  1  0  0  0
  1 32  1  0  0  0
  1 33  1  0  0  0
  2  3  1  0  0  0
  3  4  1  0  0  0
  3  8  2  0  0  0
  4  5  2  0  0  0
  4 34  1  0  0  0
  5  6  1  0  0  0
  5 15  1  0  0  0
  6  7  2  0  0  0
  6 12  1  0  0  0
  7  8  1  0  0  0
  7 35  1  0  0  0
  8  9  1  0  0  0
  9 10  2  0  0  0
  9 11  1  0  0  0
 11 36  1  0  0  0
 11 37  1  0  0  0
 12 13  2  0  0  0
 12 16  1  0  0  0
 13 14  1  0  0  0
 13 38  1  0  0  0
 14 15  2  0  0  0
 14 39  1  0  0  0
 16 17  1  0  0  0
 17 18  1  0  0  0
 17 22  2  0  0  0
 18 19  2  0  0  0
 18 40  1  0  0  0
 19 20  1  0  0  0
 19 41  1  0  0  0
 20 21  2  0  0  0
 20 24  1  0  0  0
 21 22  1  0  0  0
 21 23  1  0  0  0
 22 42  1  0  0  0
 24 25  1  0  0  0
 24 43  1  0  0  0
 25 26  2  0  0  0
 25 27  1  0  0  0
 27 28  1  0  0  0
 27 44  1  0  0  0
 28 29  1  0  0  0
 28 30  1  0  0  0
 28 45  1  0  0  0
 29 30  1  0  0  0
 29 46  1  0  0  0
 29 47  1  0  0  0
 30 48  1  0  0  0
 30 49  1  0  0  0
M  END
> <s_m_entry_id>
26

> <i_f3d_flags>
0

> <r_lp_tautomer_probability>
1

> <r_epik_Ionization_Penalty>
  0.0000

> <r_epik_State_Penalty>
  0.0000

> <i_epik_Tot_Q>
0

> <s_pdb_PDB_TITLE>
Lenvatinib

> <s_m_Source_Path>
/media/4tb_disk1/SijieChen/TKI/pharmacophore_hypothesis-2/ligprep57_mae/active_less_than_50

> <s_m_Source_File>
Lenvatinib.mae

> <i_m_Source_File_Index>
1

$$$$
Imatinib
                    3D
 Structure written by MMmdl.
 69 73  0  0  1  0            999 V2000
   -4.1819    0.7346   -0.5643 C   0  0  0  0  0  0
   -2.6691    0.6346   -0.4627 C   0  0  0  0  0  0
   -2.0464   -0.6149   -0.6618 C   0  0  0  0  0  0
   -0.6478   -0.7370   -0.5727 C   0  0  0  0  0  0
    0.1472    0.3871   -0.2767 C   0  0  0  0  0  0
   -0.4745    1.6452   -0.0987 C   0  0  0  0  0  0
   -1.8801    1.7742   -0.1730 C   0  0  0  0  0  0
   -2.4961    3.0230   -0.0006 N   0  0  0  0  0  0
   -2.2825    4.0829    0.8620 C   0  0  0  0  0  0
   -1.2698    4.0072    1.7303 N   0  0  0  0  0  0
   -1.0962    5.0563    2.5603 C   0  0  0  0  0  0
   -1.9441    6.1809    2.5212 C   0  0  0  0  0  0
   -2.9912    6.1594    1.5707 C   0  0  0  0  0  0
   -3.1463    5.0945    0.7472 N   0  0  0  0  0  0
   -3.9562    7.2686    1.4113 C   0  0  0  0  0  0
   -5.2777    7.0510    0.9534 C   0  0  0  0  0  0
   -6.1621    8.1393    0.8260 C   0  0  0  0  0  0
   -5.6952    9.4228    1.1635 C   0  0  0  0  0  0
   -4.4421    9.6576    1.6028 N   0  0  0  0  0  0
   -3.6051    8.6040    1.7215 C   0  0  0  0  0  0
    1.5541    0.1985   -0.2225 N   0  0  0  0  0  0
    2.4626    0.8874    0.4954 C   0  0  0  0  0  0
    2.2060    1.8585    1.2073 O   0  0  0  0  0  0
    3.8828    0.4195    0.3396 C   0  0  0  0  0  0
    4.9451    1.3447    0.4514 C   0  0  0  0  0  0
    6.2815    0.9176    0.3310 C   0  0  0  0  0  0
    6.5737   -0.4431    0.1054 C   0  0  0  0  0  0
    5.5192   -1.3725    0.0003 C   0  0  0  0  0  0
    4.1827   -0.9462    0.1225 C   0  0  0  0  0  0
    8.0127   -0.9102   -0.0208 C   0  0  0  0  0  0
    8.6363   -0.6983    2.3767 C   0  0  0  0  0  0
    9.0534   -1.5023    3.6262 C   0  0  0  0  0  0
   10.1407   -3.1359    2.2474 C   0  0  0  0  0  0
    9.7417   -2.3540    0.9784 C   0  0  0  0  0  0
   11.4750   -1.4153    3.3465 C   0  0  0  0  0  0
    8.4873   -1.5976    1.2051 N   0  3  0  0  0  0
   10.2874   -2.2600    3.4112 N   0  0  0  0  0  0
   -4.4655    1.4153   -1.3676 H   0  0  0  0  0  0
   -4.6026    1.1077    0.3700 H   0  0  0  0  0  0
   -4.6329   -0.2363   -0.7716 H   0  0  0  0  0  0
   -2.6404   -1.4890   -0.8853 H   0  0  0  0  0  0
   -0.1876   -1.7020   -0.7291 H   0  0  0  0  0  0
    0.1236    2.5263    0.0740 H   0  0  0  0  0  0
   -3.3691    3.1023   -0.5010 H   0  0  0  0  0  0
   -0.2771    4.9977    3.2617 H   0  0  0  0  0  0
   -1.7950    7.0097    3.1970 H   0  0  0  0  0  0
   -5.6212    6.0577    0.7041 H   0  0  0  0  0  0
   -7.1743    7.9924    0.4792 H   0  0  0  0  0  0
   -6.3441   10.2819    1.0789 H   0  0  0  0  0  0
   -2.6118    8.8461    2.0692 H   0  0  0  0  0  0
    1.9024   -0.6123   -0.7128 H   0  0  0  0  0  0
    4.7421    2.3915    0.6271 H   0  0  0  0  0  0
    7.0806    1.6393    0.4168 H   0  0  0  0  0  0
    5.7322   -2.4181   -0.1685 H   0  0  0  0  0  0
    3.3941   -1.6813    0.0515 H   0  0  0  0  0  0
    8.0665   -1.5944   -0.8690 H   0  0  0  0  0  0
    8.6680   -0.0704   -0.2573 H   0  0  0  0  0  0
    7.6893   -0.2006    2.5855 H   0  0  0  0  0  0
    9.3576    0.0896    2.1557 H   0  0  0  0  0  0
    9.1748   -0.8389    4.4834 H   0  0  0  0  0  0
    8.2590   -2.2023    3.8891 H   0  0  0  0  0  0
    9.3776   -3.8834    2.4695 H   0  0  0  0  0  0
   11.0689   -3.6840    2.0811 H   0  0  0  0  0  0
   10.5376   -1.6766    0.6660 H   0  0  0  0  0  0
    9.5951   -3.0588    0.1592 H   0  0  0  0  0  0
   12.3701   -2.0303    3.2478 H   0  0  0  0  0  0
   11.5744   -0.8341    4.2638 H   0  0  0  0  0  0
   11.4507   -0.7196    2.5084 H   0  0  0  0  0  0
    7.7822   -2.2791    1.4467 H   0  0  0  0  0  0
  1  2  1  0  0  0
  1 38  1  0  0  0
  1 39  1  0  0  0
  1 40  1  0  0  0
  2  3  1  0  0  0
  2  7  2  0  0  0
  3  4  2  0  0  0
  3 41  1  0  0  0
  4  5  1  0  0  0
  4 42  1  0  0  0
  5  6  2  0  0  0
  5 21  1  0  0  0
  6  7  1  0  0  0
  6 43  1  0  0  0
  7  8  1  0  0  0
  8  9  1  0  0  0
  8 44  1  0  0  0
  9 10  1  0  0  0
  9 14  2  0  0  0
 10 11  2  0  0  0
 11 12  1  0  0  0
 11 45  1  0  0  0
 12 13  2  0  0  0
 12 46  1  0  0  0
 13 14  1  0  0  0
 13 15  1  0  0  0
 15 16  1  0  0  0
 15 20  2  0  0  0
 16 17  2  0  0  0
 16 47  1  0  0  0
 17 18  1  0  0  0
 17 48  1  0  0  0
 18 19  2  0  0  0
 18 49  1  0  0  0
 19 20  1  0  0  0
 20 50  1  0  0  0
 21 22  1  0  0  0
 21 51  1  0  0  0
 22 23  2  0  0  0
 22 24  1  0  0  0
 24 25  1  0  0  0
 24 29  2  0  0  0
 25 26  2  0  0  0
 25 52  1  0  0  0
 26 27  1  0  0  0
 26 53  1  0  0  0
 27 28  2  0  0  0
 27 30  1  0  0  0
 28 29  1  0  0  0
 28 54  1  0  0  0
 29 55  1  0  0  0
 30 56  1  0  0  0
 30 57  1  0  0  0
 30 36  1  0  0  0
 31 32  1  0  0  0
 31 58  1  0  0  0
 31 59  1  0  0  0
 31 36  1  0  0  0
 32 60  1  0  0  0
 32 61  1  0  0  0
 32 37  1  0  0  0
 33 34  1  0  0  0
 33 62  1  0  0  0
 33 63  1  0  0  0
 33 37  1  0  0  0
 34 64  1  0  0  0
 34 65  1  0  0  0
 34 36  1  0  0  0
 35 66  1  0  0  0
 35 67  1  0  0  0
 35 68  1  0  0  0
 35 37  1  0  0  0
 36 69  1  0  0  0
M  CHG  1  36   1
M  END
> <s_m_entry_id>
27

> <i_f3d_flags>
0

> <r_lp_tautomer_probability>
0.999999987636

> <r_epik_Ionization_Penalty>
  0.0173

> <r_epik_State_Penalty>
  0.2066

> <i_epik_Tot_Q>
1

> <s_pdb_PDB_TITLE>
Imatinib

> <s_m_Source_Path>
/media/4tb_disk1/SijieChen/TKI/pharmacophore_hypothesis-2/ligprep57_mae/active_less_than_50

> <s_m_Source_File>
Imatinib.mae

> <i_m_Source_File_Index>
1

$$$$
Ibrutinib
                    3D
 Structure written by MMmdl.
 57 61  0  0  1  0            999 V2000
   -7.1674   -4.8492   -2.5384 C   0  0  0  0  0  0
   -6.2416   -4.4898   -1.6327 C   0  0  0  0  0  0
   -5.0975   -3.6730   -2.0228 C   0  0  0  0  0  0
   -5.1095   -2.9414   -3.0146 O   0  0  0  0  0  0
   -4.0304   -3.7197   -1.1808 N   0  0  0  0  0  0
   -3.8247   -4.6418   -0.0518 C   0  0  0  0  0  0
   -3.9810   -3.8522    1.2594 C   0  0  0  0  0  0
   -2.9832   -2.6788    1.3035 C   0  0  0  0  0  0
   -3.0360   -1.8301    0.0106 C   0  0  2  0  0  0
   -2.9440   -2.7308   -1.2431 C   0  0  0  0  0  0
   -2.0180   -0.7863    0.0100 N   0  0  0  0  0  0
   -2.2002    0.5904    0.0261 C   0  0  0  0  0  0
   -0.8877    1.1341    0.0453 C   0  0  0  0  0  0
   -0.0236   -0.0128    0.0230 C   0  0  0  0  0  0
   -0.7013   -1.1373    0.0095 N   0  0  0  0  0  0
    1.4404   -0.0223    0.0176 C   0  0  0  0  0  0
    2.1591    0.7780   -0.8963 C   0  0  0  0  0  0
    3.5675    0.7690   -0.8980 C   0  0  0  0  0  0
    4.2712   -0.0476    0.0095 C   0  0  0  0  0  0
    3.5581   -0.8468    0.9261 C   0  0  0  0  0  0
    2.1500   -0.8361    0.9274 C   0  0  0  0  0  0
    5.6406   -0.0510    0.0068 O   0  0  0  0  0  0
    6.2442   -1.0954   -0.6419 C   0  0  0  0  0  0
    6.4206   -1.0578   -2.0410 C   0  0  0  0  0  0
    7.0463   -2.1319   -2.7036 C   0  0  0  0  0  0
    7.5002   -3.2446   -1.9689 C   0  0  0  0  0  0
    7.3314   -3.2817   -0.5710 C   0  0  0  0  0  0
    6.7067   -2.2072    0.0919 C   0  0  0  0  0  0
   -0.8213    2.5509    0.0915 C   0  0  0  0  0  0
   -1.9719    3.2629    0.0965 N   0  0  0  0  0  0
   -3.1414    2.6147    0.0653 C   0  0  0  0  0  0
   -3.3678    1.2981    0.0337 N   0  0  0  0  0  0
    0.3717    3.2674    0.1502 N   0  0  0  0  0  0
   -7.0966   -4.5649   -3.5788 H   0  0  0  0  0  0
   -8.0201   -5.4429   -2.2439 H   0  0  0  0  0  0
   -6.3884   -4.8035   -0.6106 H   0  0  0  0  0  0
   -4.4741   -5.5159   -0.0642 H   0  0  0  0  0  0
   -2.8162   -5.0545   -0.1090 H   0  0  0  0  0  0
   -5.0004   -3.4728    1.3405 H   0  0  0  0  0  0
   -3.8230   -4.5082    2.1158 H   0  0  0  0  0  0
   -3.1799   -2.0528    2.1746 H   0  0  0  0  0  0
   -1.9799   -3.0851    1.4374 H   0  0  0  0  0  0
   -4.0070   -1.3332   -0.0160 H   0  0  0  0  0  0
   -1.9844   -3.2488   -1.2804 H   0  0  0  0  0  0
   -2.9799   -2.1148   -2.1428 H   0  0  0  0  0  0
    1.6315    1.4001   -1.6044 H   0  0  0  0  0  0
    4.1089    1.3861   -1.5999 H   0  0  0  0  0  0
    4.0907   -1.4702    1.6290 H   0  0  0  0  0  0
    1.6154   -1.4533    1.6347 H   0  0  0  0  0  0
    6.0747   -0.2054   -2.6069 H   0  0  0  0  0  0
    7.1785   -2.1020   -3.7752 H   0  0  0  0  0  0
    7.9798   -4.0682   -2.4770 H   0  0  0  0  0  0
    7.6813   -4.1338   -0.0070 H   0  0  0  0  0  0
    6.5788   -2.2374    1.1639 H   0  0  0  0  0  0
   -4.0222    3.2395    0.0720 H   0  0  0  0  0  0
    1.2672    2.8011    0.1734 H   0  0  0  0  0  0
    0.3765    4.2759    0.2026 H   0  0  0  0  0  0
  1  2  2  0  0  0
  1 34  1  0  0  0
  1 35  1  0  0  0
  2  3  1  0  0  0
  2 36  1  0  0  0
  3  4  2  0  0  0
  3  5  1  0  0  0
  5  6  1  0  0  0
  5 10  1  0  0  0
  6  7  1  0  0  0
  6 37  1  0  0  0
  6 38  1  0  0  0
  7  8  1  0  0  0
  7 39  1  0  0  0
  7 40  1  0  0  0
  8  9  1  0  0  0
  8 41  1  0  0  0
  8 42  1  0  0  0
  9 10  1  0  0  0
  9 11  1  0  0  0
  9 43  1  0  0  0
 10 44  1  0  0  0
 10 45  1  0  0  0
 11 12  1  0  0  0
 11 15  1  0  0  0
 12 13  1  0  0  0
 12 32  2  0  0  0
 13 14  1  0  0  0
 13 29  2  0  0  0
 14 15  2  0  0  0
 14 16  1  0  0  0
 16 17  1  0  0  0
 16 21  2  0  0  0
 17 18  2  0  0  0
 17 46  1  0  0  0
 18 19  1  0  0  0
 18 47  1  0  0  0
 19 20  2  0  0  0
 19 22  1  0  0  0
 20 21  1  0  0  0
 20 48  1  0  0  0
 21 49  1  0  0  0
 22 23  1  0  0  0
 23 24  1  0  0  0
 23 28  2  0  0  0
 24 25  2  0  0  0
 24 50  1  0  0  0
 25 26  1  0  0  0
 25 51  1  0  0  0
 26 27  2  0  0  0
 26 52  1  0  0  0
 27 28  1  0  0  0
 27 53  1  0  0  0
 28 54  1  0  0  0
 29 30  1  0  0  0
 29 33  1  0  0  0
 30 31  2  0  0  0
 31 32  1  0  0  0
 31 55  1  0  0  0
 33 56  1  0  0  0
 33 57  1  0  0  0
M  END
> <s_m_entry_id>
28

> <i_f3d_flags>
0

> <r_lp_tautomer_probability>
1

> <r_epik_Ionization_Penalty>
  0.0006

> <r_epik_State_Penalty>
  0.0000

> <i_epik_Tot_Q>
0

> <s_pdb_PDB_TITLE>
Ibrutinib

> <s_m_Source_Path>
/media/4tb_disk1/SijieChen/TKI/pharmacophore_hypothesis-2/ligprep57_mae/active_less_than_50

> <s_m_Source_File>
Ibrutinib.mae

> <i_m_Source_File_Index>
1

$$$$
Gilteritinib
                    3D
 Structure written by MMmdl.
 85 89  0  0  1  0            999 V2000
   -4.4542    0.2572   -2.6748 C   0  0  0  0  0  0
   -4.2220    0.4617   -1.1735 C   0  0  0  0  0  0
   -2.7594    0.2926   -0.7903 C   0  0  0  0  0  0
   -2.2172   -0.9409   -0.3579 C   0  0  0  0  0  0
   -0.9066   -1.0379   -0.0438 N   0  0  0  0  0  0
   -0.1238    0.0595   -0.1554 C   0  0  0  0  0  0
   -0.6749    1.2968   -0.5980 C   0  0  0  0  0  0
   -1.9893    1.3962   -0.9147 N   0  0  0  0  0  0
    0.1578    2.5390   -0.7900 C   0  0  0  0  0  0
    1.3055    2.4945   -1.2301 O   0  0  0  0  0  0
   -0.4192    3.6862   -0.4175 N   0  0  0  0  0  0
    1.2421   -0.0758    0.1575 N   0  0  0  0  0  0
    1.9370   -1.2118    0.6021 C   0  0  0  0  0  0
    3.2323   -1.4343    0.1011 C   0  0  0  0  0  0
    3.9700   -2.5562    0.5158 C   0  0  0  0  0  0
    3.4312   -3.4667    1.4468 C   0  0  0  0  0  0
    2.1352   -3.2466    1.9840 C   0  0  0  0  0  0
    1.4031   -2.1097    1.5548 C   0  0  0  0  0  0
    1.6493   -4.1510    2.9081 O   0  0  0  0  0  0
    0.3633   -3.9319    3.4683 C   0  0  0  0  0  0
    4.2257   -4.5650    1.8130 N   0  0  0  0  0  0
    4.7179   -4.5213    3.1832 C   0  0  0  0  0  0
    5.8063   -5.5841    3.4030 C   0  0  0  0  0  0
    5.3217   -7.0067    3.0152 C   0  0  0  0  0  0
    4.7773   -6.9505    1.5642 C   0  0  0  0  0  0
    3.7095   -5.8593    1.3874 C   0  0  0  0  0  0
    5.8933   -9.4580    3.0437 C   0  0  0  0  0  0
    5.1482   -9.8971    4.3279 C   0  0  0  0  0  0
    6.4980   -8.3813    5.6254 C   0  0  0  0  0  0
    7.2632   -7.9686    4.3478 C   0  0  0  0  0  0
    7.0065  -10.7678    5.6419 C   0  0  0  0  0  0
   -3.0200   -2.0891   -0.2530 N   0  0  0  0  0  0
   -2.4922   -3.3503    0.2587 C   0  0  0  0  0  0
   -3.6257   -4.2613    0.7490 C   0  0  0  0  0  0
   -3.0606   -5.6083    1.2302 C   0  0  0  0  0  0
   -2.3203   -6.2294    0.1840 O   0  0  0  0  0  0
   -1.1980   -5.4613   -0.2386 C   0  0  0  0  0  0
   -1.6670   -4.1080   -0.7969 C   0  0  0  0  0  0
    6.3874   -8.0566    3.1474 N   0  3  0  0  0  0
    5.9720   -9.7453    5.5294 N   0  0  0  0  0  0
   -5.5065    0.3887   -2.9266 H   0  0  0  0  0  0
   -4.1599   -0.7458   -2.9852 H   0  0  0  0  0  0
   -3.8786    0.9726   -3.2628 H   0  0  0  0  0  0
   -4.5481    1.4634   -0.8901 H   0  0  0  0  0  0
   -4.8469   -0.2239   -0.6010 H   0  0  0  0  0  0
   -1.3617    3.6772   -0.0550 H   0  0  0  0  0  0
    0.0858    4.5558   -0.5070 H   0  0  0  0  0  0
    1.8215    0.6870   -0.1645 H   0  0  0  0  0  0
    3.6629   -0.7501   -0.6158 H   0  0  0  0  0  0
    4.9593   -2.7172    0.1125 H   0  0  0  0  0  0
    0.4259   -1.9050    1.9620 H   0  0  0  0  0  0
    0.1440   -4.7246    4.1833 H   0  0  0  0  0  0
   -0.4131   -3.9570    2.7042 H   0  0  0  0  0  0
    0.3159   -2.9829    4.0038 H   0  0  0  0  0  0
    5.1182   -3.5299    3.4004 H   0  0  0  0  0  0
    3.8955   -4.6924    3.8780 H   0  0  0  0  0  0
    6.6923   -5.3215    2.8230 H   0  0  0  0  0  0
    6.0884   -5.5385    4.4544 H   0  0  0  0  0  0
    4.4972   -7.2565    3.6827 H   0  0  0  0  0  0
    5.5997   -6.7660    0.8713 H   0  0  0  0  0  0
    4.3307   -7.8971    1.2661 H   0  0  0  0  0  0
    2.8248   -6.1189    1.9689 H   0  0  0  0  0  0
    3.4006   -5.8066    0.3425 H   0  0  0  0  0  0
    6.7460  -10.1136    2.8654 H   0  0  0  0  0  0
    5.2510   -9.5960    2.1770 H   0  0  0  0  0  0
    4.2389   -9.3098    4.4547 H   0  0  0  0  0  0
    4.8234  -10.9344    4.2390 H   0  0  0  0  0  0
    7.1463   -8.3021    6.4990 H   0  0  0  0  0  0
    5.6668   -7.6966    5.7980 H   0  0  0  0  0  0
    7.7081   -6.9817    4.4588 H   0  0  0  0  0  0
    8.1200   -8.6256    4.1970 H   0  0  0  0  0  0
    7.5511  -10.6518    6.5795 H   0  0  0  0  0  0
    7.7267  -10.7299    4.8255 H   0  0  0  0  0  0
    6.5555  -11.7606    5.6452 H   0  0  0  0  0  0
   -4.0020   -2.0320   -0.4810 H   0  0  0  0  0  0
   -1.8545   -3.1311    1.1149 H   0  0  0  0  0  0
   -4.1753   -3.7795    1.5584 H   0  0  0  0  0  0
   -4.3409   -4.4355   -0.0563 H   0  0  0  0  0  0
   -2.4260   -5.4729    2.1072 H   0  0  0  0  0  0
   -3.8739   -6.2710    1.5266 H   0  0  0  0  0  0
   -0.5053   -5.3197    0.5926 H   0  0  0  0  0  0
   -0.6608   -6.0171   -1.0073 H   0  0  0  0  0  0
   -2.2690   -4.2740   -1.6916 H   0  0  0  0  0  0
   -0.8007   -3.5247   -1.1090 H   0  0  0  0  0  0
    6.9982   -7.9087    2.3567 H   0  0  0  0  0  0
  1  2  1  0  0  0
  1 41  1  0  0  0
  1 42  1  0  0  0
  1 43  1  0  0  0
  2  3  1  0  0  0
  2 44  1  0  0  0
  2 45  1  0  0  0
  3  4  1  0  0  0
  3  8  2  0  0  0
  4  5  2  0  0  0
  4 32  1  0  0  0
  5  6  1  0  0  0
  6  7  2  0  0  0
  6 12  1  0  0  0
  7  8  1  0  0  0
  7  9  1  0  0  0
  9 10  2  0  0  0
  9 11  1  0  0  0
 11 46  1  0  0  0
 11 47  1  0  0  0
 12 13  1  0  0  0
 12 48  1  0  0  0
 13 14  1  0  0  0
 13 18  2  0  0  0
 14 15  2  0  0  0
 14 49  1  0  0  0
 15 16  1  0  0  0
 15 50  1  0  0  0
 16 17  2  0  0  0
 16 21  1  0  0  0
 17 18  1  0  0  0
 17 19  1  0  0  0
 18 51  1  0  0  0
 19 20  1  0  0  0
 20 52  1  0  0  0
 20 53  1  0  0  0
 20 54  1  0  0  0
 21 22  1  0  0  0
 21 26  1  0  0  0
 22 23  1  0  0  0
 22 55  1  0  0  0
 22 56  1  0  0  0
 23 24  1  0  0  0
 23 57  1  0  0  0
 23 58  1  0  0  0
 24 25  1  0  0  0
 24 59  1  0  0  0
 24 39  1  0  0  0
 25 26  1  0  0  0
 25 60  1  0  0  0
 25 61  1  0  0  0
 26 62  1  0  0  0
 26 63  1  0  0  0
 27 28  1  0  0  0
 27 64  1  0  0  0
 27 65  1  0  0  0
 27 39  1  0  0  0
 28 66  1  0  0  0
 28 67  1  0  0  0
 28 40  1  0  0  0
 29 30  1  0  0  0
 29 68  1  0  0  0
 29 69  1  0  0  0
 29 40  1  0  0  0
 30 70  1  0  0  0
 30 71  1  0  0  0
 30 39  1  0  0  0
 31 72  1  0  0  0
 31 73  1  0  0  0
 31 74  1  0  0  0
 31 40  1  0  0  0
 32 33  1  0  0  0
 32 75  1  0  0  0
 33 34  1  0  0  0
 33 38  1  0  0  0
 33 76  1  0  0  0
 34 35  1  0  0  0
 34 77  1  0  0  0
 34 78  1  0  0  0
 35 36  1  0  0  0
 35 79  1  0  0  0
 35 80  1  0  0  0
 36 37  1  0  0  0
 37 38  1  0  0  0
 37 81  1  0  0  0
 37 82  1  0  0  0
 38 83  1  0  0  0
 38 84  1  0  0  0
 39 85  1  0  0  0
M  CHG  1  39   1
M  END
> <s_m_entry_id>
29

> <i_f3d_flags>
0

> <r_epik_Ionization_Penalty>
  0.0115

> <r_epik_State_Penalty>
  0.0264

> <i_epik_Tot_Q>
1

> <s_pdb_PDB_TITLE>
Gilteritinib

> <s_m_Source_Path>
/media/4tb_disk1/SijieChen/TKI/pharmacophore_hypothesis-2/ligprep57_mae/active_less_than_50

> <s_m_Source_File>
Gilteritinib.mae

> <i_m_Source_File_Index>
1

$$$$
gefitinib
                    3D
 Structure written by MMmdl.
 55 58  0  0  1  0            999 V2000
    7.3930    5.9834   -3.6531 Cl  0  0  0  0  0  0
    5.8768    8.3622   -2.6932 F   0  0  0  0  0  0
   -6.3937   -1.0488    2.3761 O   0  0  0  0  0  0
    0.0117   -0.0378   -0.0146 O   0  0  0  0  0  0
    1.2815   -2.2900    0.5975 O   0  0  0  0  0  0
   -4.0820    0.3545    1.4315 N   0  0  0  0  0  0
    3.7493    3.5178   -0.8913 N   0  0  0  0  0  0
    5.5866   -0.0938    0.0640 N   0  0  0  0  0  0
    5.6997    2.2083   -0.5353 N   0  0  0  0  0  0
   -2.6406    0.4991    1.2351 C   0  0  0  0  0  0
   -4.6309   -0.8050    0.7306 C   0  0  0  0  0  0
   -4.4049    0.2459    2.8505 C   0  0  0  0  0  0
   -2.2111    0.8585   -0.1985 C   0  0  0  0  0  0
   -6.1418   -0.9638    0.9773 C   0  0  0  0  0  0
   -5.9168    0.0882    3.0880 C   0  0  0  0  0  0
   -0.7100    1.1518   -0.3039 C   0  0  0  0  0  0
    1.3904    0.0070   -0.0117 C   0  0  0  0  0  0
    3.5517    1.1443   -0.2892 C   0  0  0  0  0  0
    2.1396    1.1707   -0.3131 C   0  0  0  0  0  0
    2.0648   -1.1901    0.3127 C   0  0  0  0  0  0
    4.2357   -0.0574    0.0369 C   0  0  0  0  0  0
    3.4812   -1.2094    0.3326 C   0  0  0  0  0  0
    4.3498    2.2830   -0.5828 C   0  0  0  0  0  0
    4.3291    4.7100   -1.3548 C   0  0  0  0  0  0
    6.2411    1.0319   -0.2205 C   0  0  0  0  0  0
    1.9263   -3.5130    0.9213 C   0  0  0  0  0  0
    5.4700    4.7399   -2.1914 C   0  0  0  0  0  0
    3.7072    5.9265   -1.0033 C   0  0  0  0  0  0
    5.9955    5.9681   -2.6397 C   0  0  0  0  0  0
    4.2306    7.1550   -1.4504 C   0  0  0  0  0  0
    5.3773    7.1777   -2.2659 C   0  0  0  0  0  0
   -2.2770    1.2880    1.8951 H   0  0  0  0  0  0
   -2.1326   -0.4129    1.5529 H   0  0  0  0  0  0
   -4.4622   -0.7153   -0.3420 H   0  0  0  0  0  0
   -4.1159   -1.7110    1.0544 H   0  0  0  0  0  0
   -3.8822   -0.6079    3.2849 H   0  0  0  0  0  0
   -4.0491    1.1308    3.3797 H   0  0  0  0  0  0
   -2.4623    0.0547   -0.8904 H   0  0  0  0  0  0
   -2.7660    1.7372   -0.5289 H   0  0  0  0  0  0
   -6.5120   -1.8674    0.4929 H   0  0  0  0  0  0
   -6.6932   -0.1234    0.5525 H   0  0  0  0  0  0
   -6.4552    0.9808    2.7650 H   0  0  0  0  0  0
   -6.1219   -0.0431    4.1506 H   0  0  0  0  0  0
   -0.4398    1.9484    0.3912 H   0  0  0  0  0  0
   -0.4774    1.4904   -1.3146 H   0  0  0  0  0  0
    1.6377    2.0909   -0.5668 H   0  0  0  0  0  0
    4.0216   -2.1111    0.5774 H   0  0  0  0  0  0
    2.7671    3.5782   -0.6657 H   0  0  0  0  0  0
    7.3196    0.9869   -0.1914 H   0  0  0  0  0  0
    5.9465    3.8260   -2.5117 H   0  0  0  0  0  0
    2.8253    5.9238   -0.3792 H   0  0  0  0  0  0
    1.1723   -4.2756    1.1155 H   0  0  0  0  0  0
    2.5365   -3.4167    1.8203 H   0  0  0  0  0  0
    2.5480   -3.8665    0.0976 H   0  0  0  0  0  0
    3.7507    8.0804   -1.1681 H   0  0  0  0  0  0
  1 29  1  0  0  0
  2 31  1  0  0  0
  3 14  1  0  0  0
  3 15  1  0  0  0
  4 16  1  0  0  0
  4 17  1  0  0  0
  5 20  1  0  0  0
  5 26  1  0  0  0
  6 10  1  0  0  0
  6 11  1  0  0  0
  6 12  1  0  0  0
  7 23  1  0  0  0
  7 24  1  0  0  0
  7 48  1  0  0  0
  8 21  1  0  0  0
  8 25  2  0  0  0
  9 23  2  0  0  0
  9 25  1  0  0  0
 10 13  1  0  0  0
 10 32  1  0  0  0
 10 33  1  0  0  0
 11 14  1  0  0  0
 11 34  1  0  0  0
 11 35  1  0  0  0
 12 15  1  0  0  0
 12 36  1  0  0  0
 12 37  1  0  0  0
 13 16  1  0  0  0
 13 38  1  0  0  0
 13 39  1  0  0  0
 14 40  1  0  0  0
 14 41  1  0  0  0
 15 42  1  0  0  0
 15 43  1  0  0  0
 16 44  1  0  0  0
 16 45  1  0  0  0
 17 19  1  0  0  0
 17 20  2  0  0  0
 18 19  2  0  0  0
 18 21  1  0  0  0
 18 23  1  0  0  0
 19 46  1  0  0  0
 20 22  1  0  0  0
 21 22  2  0  0  0
 22 47  1  0  0  0
 24 27  2  0  0  0
 24 28  1  0  0  0
 25 49  1  0  0  0
 26 52  1  0  0  0
 26 53  1  0  0  0
 26 54  1  0  0  0
 27 29  1  0  0  0
 27 50  1  0  0  0
 28 30  2  0  0  0
 28 51  1  0  0  0
 29 31  2  0  0  0
 30 31  1  0  0  0
 30 55  1  0  0  0
M  END
> <s_m_entry_id>
30

> <i_f3d_flags>
0

> <r_lp_tautomer_probability>
0.999978000241998

> <r_epik_Ionization_Penalty>
  0.4080

> <r_epik_State_Penalty>
  0.4064

> <i_epik_Tot_Q>
0

> <s_pdb_PDB_TITLE>
gefitinib

> <s_m_Source_Path>
/media/4tb_disk1/SijieChen/TKI/pharmacophore_hypothesis-2/ligprep57_mae/active_less_than_50

> <s_m_Source_File>
gefitinib.mae

> <i_m_Source_File_Index>
1

$$$$
Fedratinib
                    3D
 Structure written by MMmdl.
 74 77  0  0  1  0            999 V2000
   -4.7090   -0.0141    0.5508 C   0  0  0  0  0  0
   -3.2473   -0.2193    0.1972 C   0  0  0  0  0  0
   -2.6334   -1.4815    0.3470 C   0  0  0  0  0  0
   -1.3353   -1.6840    0.0381 N   0  0  0  0  0  0
   -0.6483   -0.6291   -0.4091 C   0  0  0  0  0  0
   -1.1276    0.6024   -0.5900 N   0  0  0  0  0  0
   -2.4310    0.8244   -0.3005 C   0  0  0  0  0  0
   -2.9630    2.1138   -0.4703 N   0  0  0  0  0  0
   -2.4101    3.2289   -1.1206 C   0  0  0  0  0  0
   -1.5246    3.1183   -2.2200 C   0  0  0  0  0  0
   -1.0138    4.2712   -2.8484 C   0  0  0  0  0  0
   -1.3921    5.5481   -2.3953 C   0  0  0  0  0  0
   -2.2879    5.6614   -1.3152 C   0  0  0  0  0  0
   -2.8002    4.5113   -0.6819 C   0  0  0  0  0  0
   -2.8039    7.2863   -0.7743 S   0  0  0  0  0  0
   -1.5972    7.9919   -0.3172 O   0  0  0  0  0  0
   -3.9696    7.1542    0.1133 O   0  0  0  0  0  0
   -3.3082    8.0508   -2.2506 N   0  0  0  0  0  0
   -4.6092    7.8371   -2.9153 C   0  0  0  0  0  0
   -4.4724    8.3749   -4.3502 C   0  0  0  0  0  0
   -5.6993    8.6334   -2.1742 C   0  0  0  0  0  0
   -4.9738    6.3408   -2.9762 C   0  0  0  0  0  0
    0.6806   -0.7965   -0.7529 N   0  0  0  0  0  0
    1.5264   -1.9094   -0.8432 C   0  0  0  0  0  0
    1.4977   -2.9555    0.1039 C   0  0  0  0  0  0
    2.3736   -4.0508   -0.0225 C   0  0  0  0  0  0
    3.2946   -4.1211   -1.0873 C   0  0  0  0  0  0
    3.3287   -3.0627   -2.0293 C   0  0  0  0  0  0
    2.4543   -1.9666   -1.9014 C   0  0  0  0  0  0
    4.1118   -5.2298   -1.1371 O   0  0  0  0  0  0
    5.0428   -5.3318   -2.2061 C   0  0  0  0  0  0
    5.8491   -6.6321   -2.0676 C   0  0  0  0  0  0
    6.4365   -6.5019    0.3670 C   0  0  0  0  0  0
    7.4472   -7.3095    1.1946 C   0  0  0  0  0  0
    8.6106   -7.5794    0.2439 C   0  0  0  0  0  0
    7.9448   -7.5766   -1.1273 C   0  0  0  0  0  0
    6.9103   -6.5286   -1.0378 N   0  3  0  0  0  0
   -4.8079    0.7281    1.3432 H   0  0  0  0  0  0
   -5.1649   -0.9422    0.8965 H   0  0  0  0  0  0
   -5.2660    0.3326   -0.3199 H   0  0  0  0  0  0
   -3.1840   -2.3345    0.7153 H   0  0  0  0  0  0
   -3.8441    2.2757   -0.0049 H   0  0  0  0  0  0
   -1.2370    2.1529   -2.6077 H   0  0  0  0  0  0
   -0.3373    4.1746   -3.6846 H   0  0  0  0  0  0
   -1.0051    6.4322   -2.8806 H   0  0  0  0  0  0
   -3.4909    4.6110    0.1425 H   0  0  0  0  0  0
   -2.5387    8.2483   -2.8897 H   0  0  0  0  0  0
   -5.4025    8.2596   -4.9082 H   0  0  0  0  0  0
   -3.6929    7.8459   -4.9002 H   0  0  0  0  0  0
   -4.2165    9.4353   -4.3557 H   0  0  0  0  0  0
   -5.4330    9.6877   -2.0907 H   0  0  0  0  0  0
   -5.8704    8.2566   -1.1666 H   0  0  0  0  0  0
   -6.6524    8.5779   -2.7014 H   0  0  0  0  0  0
   -5.9000    6.1882   -3.5312 H   0  0  0  0  0  0
   -5.1283    5.9162   -1.9847 H   0  0  0  0  0  0
   -4.1987    5.7586   -3.4757 H   0  0  0  0  0  0
    1.0654    0.0237   -1.1982 H   0  0  0  0  0  0
    0.8122   -2.9262    0.9378 H   0  0  0  0  0  0
    2.3378   -4.8456    0.7082 H   0  0  0  0  0  0
    4.0163   -3.0649   -2.8611 H   0  0  0  0  0  0
    2.4957   -1.1685   -2.6288 H   0  0  0  0  0  0
    4.4973   -5.3530   -3.1510 H   0  0  0  0  0  0
    5.7171   -4.4740   -2.2271 H   0  0  0  0  0  0
    5.1962   -7.4841   -1.8724 H   0  0  0  0  0  0
    6.3358   -6.8275   -3.0241 H   0  0  0  0  0  0
    5.4428   -6.9417    0.4646 H   0  0  0  0  0  0
    6.3758   -5.4674    0.7065 H   0  0  0  0  0  0
    7.7627   -6.7854    2.0970 H   0  0  0  0  0  0
    6.9977   -8.2544    1.5020 H   0  0  0  0  0  0
    9.3358   -6.7667    0.3050 H   0  0  0  0  0  0
    9.1305   -8.5130    0.4613 H   0  0  0  0  0  0
    8.6493   -7.3808   -1.9361 H   0  0  0  0  0  0
    7.4747   -8.5443   -1.3117 H   0  0  0  0  0  0
    7.3941   -5.6551   -1.1905 H   0  0  0  0  0  0
  1  2  1  0  0  0
  1 38  1  0  0  0
  1 39  1  0  0  0
  1 40  1  0  0  0
  2  3  1  0  0  0
  2  7  2  0  0  0
  3  4  2  0  0  0
  3 41  1  0  0  0
  4  5  1  0  0  0
  5  6  2  0  0  0
  5 23  1  0  0  0
  6  7  1  0  0  0
  7  8  1  0  0  0
  8  9  1  0  0  0
  8 42  1  0  0  0
  9 10  1  0  0  0
  9 14  2  0  0  0
 10 11  2  0  0  0
 10 43  1  0  0  0
 11 12  1  0  0  0
 11 44  1  0  0  0
 12 13  2  0  0  0
 12 45  1  0  0  0
 13 14  1  0  0  0
 13 15  1  0  0  0
 14 46  1  0  0  0
 15 16  2  0  0  0
 15 17  2  0  0  0
 15 18  1  0  0  0
 18 19  1  0  0  0
 18 47  1  0  0  0
 19 20  1  0  0  0
 19 21  1  0  0  0
 19 22  1  0  0  0
 20 48  1  0  0  0
 20 49  1  0  0  0
 20 50  1  0  0  0
 21 51  1  0  0  0
 21 52  1  0  0  0
 21 53  1  0  0  0
 22 54  1  0  0  0
 22 55  1  0  0  0
 22 56  1  0  0  0
 23 24  1  0  0  0
 23 57  1  0  0  0
 24 25  1  0  0  0
 24 29  2  0  0  0
 25 26  2  0  0  0
 25 58  1  0  0  0
 26 27  1  0  0  0
 26 59  1  0  0  0
 27 28  2  0  0  0
 27 30  1  0  0  0
 28 29  1  0  0  0
 28 60  1  0  0  0
 29 61  1  0  0  0
 30 31  1  0  0  0
 31 32  1  0  0  0
 31 62  1  0  0  0
 31 63  1  0  0  0
 32 64  1  0  0  0
 32 65  1  0  0  0
 32 37  1  0  0  0
 33 34  1  0  0  0
 33 66  1  0  0  0
 33 67  1  0  0  0
 33 37  1  0  0  0
 34 35  1  0  0  0
 34 68  1  0  0  0
 34 69  1  0  0  0
 35 36  1  0  0  0
 35 70  1  0  0  0
 35 71  1  0  0  0
 36 72  1  0  0  0
 36 73  1  0  0  0
 36 37  1  0  0  0
 37 74  1  0  0  0
M  CHG  1  37   1
M  END
> <s_m_entry_id>
31

> <i_f3d_flags>
0

> <r_lp_tautomer_probability>
0.999999624730965

> <r_epik_Ionization_Penalty>
  0.0622

> <r_epik_State_Penalty>
  0.0514

> <i_epik_Tot_Q>
1

> <s_pdb_PDB_TITLE>
Fedratinib

> <s_m_Source_Path>
/media/4tb_disk1/SijieChen/TKI/pharmacophore_hypothesis-2/ligprep57_mae/active_less_than_50

> <s_m_Source_File>
Fedratinib.mae

> <i_m_Source_File_Index>
1

$$$$
Erlotinib
                    3D
 Structure written by MMmdl.
 52 54  0  0  1  0            999 V2000
   -4.3057    1.7936    0.4837 C   0  0  0  0  0  0
   -2.9249    2.0025    0.2442 O   0  0  0  0  0  0
   -2.1921    0.7893    0.2113 C   0  0  0  0  0  0
   -0.7144    1.1000   -0.0435 C   0  0  0  0  0  0
    0.0089   -0.1231   -0.0457 O   0  0  0  0  0  0
    1.3774   -0.0841   -0.2180 C   0  0  0  0  0  0
    2.1078    1.1072   -0.4493 C   0  0  0  0  0  0
    3.5106    1.0712   -0.6138 C   0  0  0  0  0  0
    4.2041   -0.1668   -0.5452 C   0  0  0  0  0  0
    3.4677   -1.3456   -0.3191 C   0  0  0  0  0  0
    2.0607   -1.3180   -0.1565 C   0  0  0  0  0  0
    1.2941   -2.4436    0.0643 O   0  0  0  0  0  0
    1.9433   -3.7052    0.1432 C   0  0  0  0  0  0
    0.8875   -4.7852    0.3953 C   0  0  0  0  0  0
    0.4495   -4.6989    1.7410 O   0  0  0  0  0  0
   -0.5405   -5.6634    2.0524 C   0  0  0  0  0  0
    5.5468   -0.2131   -0.6953 N   0  0  0  0  0  0
    6.1849    0.9379   -0.9056 C   0  0  0  0  0  0
    5.6335    2.1480   -0.9901 N   0  0  0  0  0  0
    4.2899    2.2345   -0.8558 C   0  0  0  0  0  0
    3.6849    3.5029   -0.9271 N   0  0  0  0  0  0
    4.2070    4.7194   -1.3967 C   0  0  0  0  0  0
    3.6863    5.9159   -0.8606 C   0  0  0  0  0  0
    4.1591    7.1658   -1.3052 C   0  0  0  0  0  0
    5.1525    7.2310   -2.3002 C   0  0  0  0  0  0
    5.6672    6.0433   -2.8572 C   0  0  0  0  0  0
    5.1907    4.7932   -2.4117 C   0  0  0  0  0  0
    6.6847    6.1051   -3.8933 C   0  0  0  0  0  0
    7.5435    6.1424   -4.7606 C   0  0  0  0  0  0
   -4.8246    2.7519    0.5010 H   0  0  0  0  0  0
   -4.4694    1.3049    1.4450 H   0  0  0  0  0  0
   -4.7537    1.1820   -0.3005 H   0  0  0  0  0  0
   -2.3017    0.2613    1.1600 H   0  0  0  0  0  0
   -2.5776    0.1388   -0.5753 H   0  0  0  0  0  0
   -0.6058    1.6085   -1.0027 H   0  0  0  0  0  0
   -0.3396    1.7601    0.7405 H   0  0  0  0  0  0
    1.5980    2.0561   -0.5051 H   0  0  0  0  0  0
    4.0147   -2.2748   -0.2741 H   0  0  0  0  0  0
    2.4478   -3.9130   -0.8018 H   0  0  0  0  0  0
    2.6903   -3.7185    0.9385 H   0  0  0  0  0  0
    0.0521   -4.6724   -0.2977 H   0  0  0  0  0  0
    1.3260   -5.7695    0.2235 H   0  0  0  0  0  0
   -0.8437   -5.5536    3.0935 H   0  0  0  0  0  0
   -0.1613   -6.6770    1.9172 H   0  0  0  0  0  0
   -1.4261   -5.5345    1.4288 H   0  0  0  0  0  0
    7.2576    0.8847   -1.0183 H   0  0  0  0  0  0
    2.7494    3.5526   -0.5509 H   0  0  0  0  0  0
    2.9223    5.8803   -0.0974 H   0  0  0  0  0  0
    3.7583    8.0755   -0.8830 H   0  0  0  0  0  0
    5.5103    8.1940   -2.6358 H   0  0  0  0  0  0
    5.5773    3.8939   -2.8678 H   0  0  0  0  0  0
    8.2935    6.1688   -5.5190 H   0  0  0  0  0  0
  1  2  1  0  0  0
  1 30  1  0  0  0
  1 31  1  0  0  0
  1 32  1  0  0  0
  2  3  1  0  0  0
  3  4  1  0  0  0
  3 33  1  0  0  0
  3 34  1  0  0  0
  4  5  1  0  0  0
  4 35  1  0  0  0
  4 36  1  0  0  0
  5  6  1  0  0  0
  6  7  1  0  0  0
  6 11  2  0  0  0
  7  8  2  0  0  0
  7 37  1  0  0  0
  8  9  1  0  0  0
  8 20  1  0  0  0
  9 10  2  0  0  0
  9 17  1  0  0  0
 10 11  1  0  0  0
 10 38  1  0  0  0
 11 12  1  0  0  0
 12 13  1  0  0  0
 13 14  1  0  0  0
 13 39  1  0  0  0
 13 40  1  0  0  0
 14 15  1  0  0  0
 14 41  1  0  0  0
 14 42  1  0  0  0
 15 16  1  0  0  0
 16 43  1  0  0  0
 16 44  1  0  0  0
 16 45  1  0  0  0
 17 18  2  0  0  0
 18 19  1  0  0  0
 18 46  1  0  0  0
 19 20  2  0  0  0
 20 21  1  0  0  0
 21 22  1  0  0  0
 21 47  1  0  0  0
 22 23  1  0  0  0
 22 27  2  0  0  0
 23 24  2  0  0  0
 23 48  1  0  0  0
 24 25  1  0  0  0
 24 49  1  0  0  0
 25 26  2  0  0  0
 25 50  1  0  0  0
 26 27  1  0  0  0
 26 28  1  0  0  0
 27 51  1  0  0  0
 28 29  3  0  0  0
 29 52  1  0  0  0
M  END
> <s_m_entry_id>
32

> <i_f3d_flags>
0

> <r_lp_tautomer_probability>
1

> <r_epik_Ionization_Penalty>
  0.0014

> <r_epik_State_Penalty>
  0.0000

> <i_epik_Tot_Q>
0

> <s_pdb_PDB_TITLE>
Erlotinib

> <s_m_Source_Path>
/media/4tb_disk1/SijieChen/TKI/pharmacophore_hypothesis-2/ligprep57_mae/active_less_than_50

> <s_m_Source_File>
Erlotinib.mae

> <i_m_Source_File_Index>
1

$$$$
Erdafitinib
                    3D
 Structure written by MMmdl.
 64 67  0  0  1  0            999 V2000
   -3.7733    1.8438   -0.1742 C   0  0  0  0  0  0
   -2.2735    2.1278   -0.3326 C   0  0  0  0  0  0
   -2.0089    3.0057   -1.5673 C   0  0  0  0  0  0
   -0.0749    0.9505   -0.1829 C   0  0  0  0  0  0
    0.5748   -0.4432   -0.1833 C   0  0  0  0  0  0
    2.0185   -0.3862    0.0739 N   0  0  0  0  0  0
    2.8087    0.1309   -0.9734 C   0  0  0  0  0  0
    3.7486    1.1494   -0.7099 C   0  0  0  0  0  0
    4.5284    1.6873   -1.7486 C   0  0  0  0  0  0
    4.3912    1.2260   -3.0730 C   0  0  0  0  0  0
    3.4457    0.1963   -3.3526 C   0  0  0  0  0  0
    2.6698   -0.3336   -2.3004 C   0  0  0  0  0  0
    3.2877   -0.2731   -4.6120 N   0  0  0  0  0  0
    4.0462    0.2585   -5.5974 C   0  0  0  0  0  0
    4.9773    1.2784   -5.3100 C   0  0  0  0  0  0
    5.1478    1.7569   -4.0604 N   0  0  0  0  0  0
    3.8422   -0.2820   -6.9532 C   0  0  0  0  0  0
    4.5002    0.1249   -8.1470 C   0  0  0  0  0  0
    4.0827   -0.5674   -9.1959 N   0  0  0  0  0  0
    3.1591   -1.4239   -8.7006 N   0  0  0  0  0  0
    2.9889   -1.2759   -7.3394 C   0  0  0  0  0  0
    2.4913   -2.3440   -9.5962 C   0  0  0  0  0  0
    2.4775   -0.6459    1.3858 C   0  0  0  0  0  0
    3.7948   -1.1227    1.5759 C   0  0  0  0  0  0
    4.2977   -1.3945    2.8714 C   0  0  0  0  0  0
    3.4603   -1.1902    3.9849 C   0  0  0  0  0  0
    2.1352   -0.7195    3.8236 C   0  0  0  0  0  0
    1.6598   -0.4539    2.5251 C   0  0  0  0  0  0
    1.2604   -0.4952    4.8652 O   0  0  0  0  0  0
    1.7111   -0.7580    6.1861 C   0  0  0  0  0  0
    5.5724   -1.8543    3.1262 O   0  0  0  0  0  0
    6.4500   -2.0432    2.0253 C   0  0  0  0  0  0
   -1.5314    0.8493   -0.4065 N   0  3  0  0  0  0
   -4.3403    2.7707   -0.0794 H   0  0  0  0  0  0
   -3.9698    1.2477    0.7177 H   0  0  0  0  0  0
   -4.1686    1.2998   -1.0330 H   0  0  0  0  0  0
   -1.9437    2.6646    0.5583 H   0  0  0  0  0  0
   -2.5923    3.9257   -1.5225 H   0  0  0  0  0  0
   -2.2793    2.4881   -2.4885 H   0  0  0  0  0  0
   -0.9613    3.2968   -1.6424 H   0  0  0  0  0  0
    0.1094    1.4542    0.7664 H   0  0  0  0  0  0
    0.3715    1.5661   -0.9637 H   0  0  0  0  0  0
    0.0868   -1.0857    0.5498 H   0  0  0  0  0  0
    0.3797   -0.9311   -1.1370 H   0  0  0  0  0  0
    3.8733    1.5323    0.2928 H   0  0  0  0  0  0
    5.2412    2.4677   -1.5246 H   0  0  0  0  0  0
    1.9719   -1.1249   -2.5295 H   0  0  0  0  0  0
    5.5930    1.7175   -6.0809 H   0  0  0  0  0  0
    5.2535    0.8860   -8.2877 H   0  0  0  0  0  0
    2.2911   -1.8776   -6.7754 H   0  0  0  0  0  0
    1.8612   -3.0288   -9.0277 H   0  0  0  0  0  0
    3.2301   -2.9223  -10.1521 H   0  0  0  0  0  0
    1.8683   -1.7886  -10.2979 H   0  0  0  0  0  0
    4.4135   -1.2819    0.7058 H   0  0  0  0  0  0
    3.8631   -1.4038    4.9634 H   0  0  0  0  0  0
    0.6503   -0.0854    2.4286 H   0  0  0  0  0  0
    0.9070   -0.5426    6.8896 H   0  0  0  0  0  0
    2.5595   -0.1254    6.4511 H   0  0  0  0  0  0
    1.9876   -1.8057    6.3125 H   0  0  0  0  0  0
    7.4168   -2.3888    2.3909 H   0  0  0  0  0  0
    6.6172   -1.1111    1.4836 H   0  0  0  0  0  0
    6.0691   -2.7989    1.3371 H   0  0  0  0  0  0
   -1.9020    0.2394    0.3084 H   0  0  0  0  0  0
   -1.7004    0.4245   -1.3071 H   0  0  0  0  0  0
  1  2  1  0  0  0
  1 34  1  0  0  0
  1 35  1  0  0  0
  1 36  1  0  0  0
  2  3  1  0  0  0
  2 37  1  0  0  0
  2 33  1  0  0  0
  3 38  1  0  0  0
  3 39  1  0  0  0
  3 40  1  0  0  0
  4  5  1  0  0  0
  4 41  1  0  0  0
  4 42  1  0  0  0
  4 33  1  0  0  0
  5  6  1  0  0  0
  5 43  1  0  0  0
  5 44  1  0  0  0
  6  7  1  0  0  0
  6 23  1  0  0  0
  7  8  1  0  0  0
  7 12  2  0  0  0
  8  9  2  0  0  0
  8 45  1  0  0  0
  9 10  1  0  0  0
  9 46  1  0  0  0
 10 11  1  0  0  0
 10 16  2  0  0  0
 11 12  1  0  0  0
 11 13  2  0  0  0
 12 47  1  0  0  0
 13 14  1  0  0  0
 14 15  2  0  0  0
 14 17  1  0  0  0
 15 16  1  0  0  0
 15 48  1  0  0  0
 17 18  1  0  0  0
 17 21  2  0  0  0
 18 19  2  0  0  0
 18 49  1  0  0  0
 19 20  1  0  0  0
 20 21  1  0  0  0
 20 22  1  0  0  0
 21 50  1  0  0  0
 22 51  1  0  0  0
 22 52  1  0  0  0
 22 53  1  0  0  0
 23 24  1  0  0  0
 23 28  2  0  0  0
 24 25  2  0  0  0
 24 54  1  0  0  0
 25 26  1  0  0  0
 25 31  1  0  0  0
 26 27  2  0  0  0
 26 55  1  0  0  0
 27 28  1  0  0  0
 27 29  1  0  0  0
 28 56  1  0  0  0
 29 30  1  0  0  0
 30 57  1  0  0  0
 30 58  1  0  0  0
 30 59  1  0  0  0
 31 32  1  0  0  0
 32 60  1  0  0  0
 32 61  1  0  0  0
 32 62  1  0  0  0
 33 63  1  0  0  0
 33 64  1  0  0  0
M  CHG  1  33   1
M  END
> <s_m_entry_id>
33

> <i_f3d_flags>
0

> <r_lp_tautomer_probability>
1

> <r_epik_Ionization_Penalty>
  0.0004

> <r_epik_State_Penalty>
  0.0002

> <i_epik_Tot_Q>
1

> <s_pdb_PDB_TITLE>
Erdafitinib

> <s_m_Source_Path>
/media/4tb_disk1/SijieChen/TKI/pharmacophore_hypothesis-2/ligprep57_mae/active_less_than_50

> <s_m_Source_File>
Erdafitinib.mae

> <i_m_Source_File_Index>
1

$$$$
Entrectinib
                    3D
 Structure written by MMmdl.
 76 81  0  0  1  0            999 V2000
   -6.2088    1.5573    3.7638 C   0  0  0  0  0  0
   -5.0428   -0.2038    2.4936 C   0  0  0  0  0  0
   -4.6696   -0.6951    1.0833 C   0  0  0  0  0  0
   -3.9290    0.3349    0.3574 N   0  0  0  0  0  0
   -4.5956    1.6334    0.2939 C   0  0  0  0  0  0
   -4.9948    2.1286    1.6981 C   0  0  0  0  0  0
   -2.5187    0.2602    0.3863 C   0  0  0  0  0  0
   -1.7126    1.3633    0.7433 C   0  0  0  0  0  0
   -0.3120    1.2493    0.7614 C   0  0  0  0  0  0
    0.3294    0.0375    0.4177 C   0  0  0  0  0  0
   -0.4680   -1.0870    0.0581 C   0  0  0  0  0  0
   -1.8778   -0.9497    0.0395 C   0  0  0  0  0  0
    0.1377   -2.3078   -0.2996 N   0  0  0  0  0  0
   -0.5613   -3.5843   -0.1886 C   0  0  0  0  0  0
    0.2921   -4.7167   -0.7774 C   0  0  0  0  0  0
   -0.4115   -6.0720   -0.5971 C   0  0  0  0  0  0
   -0.6781   -6.3030    0.7824 O   0  0  0  0  0  0
   -1.5471   -5.3295    1.3520 C   0  0  0  0  0  0
   -0.9022   -3.9363    1.2715 C   0  0  0  0  0  0
    1.8361   -0.0298    0.4838 C   0  0  0  0  0  0
    2.4064   -1.0169    0.9508 O   0  0  0  0  0  0
    2.4693    1.0478   -0.0191 N   0  0  0  0  0  0
    3.8681    1.2729   -0.1003 C   0  0  0  0  0  0
    4.3976    2.5352   -0.5257 C   0  0  0  0  0  0
    3.8965    3.7916   -0.9407 C   0  0  0  0  0  0
    4.7729    4.8465   -1.2830 C   0  0  0  0  0  0
    6.1703    4.6526   -1.2157 C   0  0  0  0  0  0
    6.6944    3.4104   -0.8127 C   0  0  0  0  0  0
    5.8091    2.3733   -0.4726 C   0  0  0  0  0  0
    5.9798    1.0684   -0.0421 N   0  0  0  0  0  0
    4.8163    0.4082    0.1833 N   0  0  0  0  0  0
    4.2144    6.1926   -1.7122 C   0  0  0  0  0  0
    4.6300    6.5838   -3.1194 C   0  0  0  0  0  0
    5.5350    7.6471   -3.3249 C   0  0  0  0  0  0
    5.9219    8.0056   -4.6311 C   0  0  0  0  0  0
    5.4055    7.3027   -5.7368 C   0  0  0  0  0  0
    4.5012    6.2416   -5.5359 C   0  0  0  0  0  0
    4.1131    5.8836   -4.2298 C   0  0  0  0  0  0
    4.0050    5.5649   -6.5986 F   0  0  0  0  0  0
    6.7912    9.0259   -4.8232 F   0  0  0  0  0  0
   -5.7636    1.0927    2.4329 N   0  3  0  0  0  0
   -5.3560    1.7668    4.4109 H   0  0  0  0  0  0
   -6.8294    0.8027    4.2479 H   0  0  0  0  0  0
   -6.8020    2.4679    3.6737 H   0  0  0  0  0  0
   -5.6658   -0.9499    2.9883 H   0  0  0  0  0  0
   -4.1413   -0.0898    3.0984 H   0  0  0  0  0  0
   -4.1143   -1.6291    1.1617 H   0  0  0  0  0  0
   -5.5747   -0.9252    0.5202 H   0  0  0  0  0  0
   -3.9829    2.3717   -0.2240 H   0  0  0  0  0  0
   -5.4928    1.5149   -0.3146 H   0  0  0  0  0  0
   -4.1072    2.3908    2.2753 H   0  0  0  0  0  0
   -5.5934    3.0357    1.6095 H   0  0  0  0  0  0
   -2.1468    2.3106    1.0221 H   0  0  0  0  0  0
    0.2697    2.1113    1.0551 H   0  0  0  0  0  0
   -2.4936   -1.7808   -0.2651 H   0  0  0  0  0  0
    1.1462   -2.3472   -0.2407 H   0  0  0  0  0  0
   -1.4788   -3.5392   -0.7746 H   0  0  0  0  0  0
    0.4826   -4.5357   -1.8358 H   0  0  0  0  0  0
    1.2651   -4.7471   -0.2846 H   0  0  0  0  0  0
   -1.3406   -6.1067   -1.1679 H   0  0  0  0  0  0
    0.2223   -6.8758   -0.9724 H   0  0  0  0  0  0
   -2.5101   -5.3412    0.8391 H   0  0  0  0  0  0
   -1.7381   -5.5937    2.3923 H   0  0  0  0  0  0
    0.0044   -3.9226    1.8784 H   0  0  0  0  0  0
   -1.5767   -3.1979    1.7047 H   0  0  0  0  0  0
    1.8842    1.7962   -0.3604 H   0  0  0  0  0  0
    2.8280    3.9410   -0.9888 H   0  0  0  0  0  0
    6.8430    5.4571   -1.4750 H   0  0  0  0  0  0
    7.7625    3.2583   -0.7615 H   0  0  0  0  0  0
    6.8639    0.6042    0.1089 H   0  0  0  0  0  0
    3.1249    6.1812   -1.6610 H   0  0  0  0  0  0
    4.5457    6.9502   -1.0006 H   0  0  0  0  0  0
    5.9375    8.1901   -2.4821 H   0  0  0  0  0  0
    5.7031    7.5772   -6.7382 H   0  0  0  0  0  0
    3.4205    5.0680   -4.0811 H   0  0  0  0  0  0
   -6.6008    0.9248    1.8933 H   0  0  0  0  0  0
  1 42  1  0  0  0
  1 43  1  0  0  0
  1 44  1  0  0  0
  1 41  1  0  0  0
  2  3  1  0  0  0
  2 45  1  0  0  0
  2 46  1  0  0  0
  2 41  1  0  0  0
  3  4  1  0  0  0
  3 47  1  0  0  0
  3 48  1  0  0  0
  4  5  1  0  0  0
  4  7  1  0  0  0
  5  6  1  0  0  0
  5 49  1  0  0  0
  5 50  1  0  0  0
  6 51  1  0  0  0
  6 52  1  0  0  0
  6 41  1  0  0  0
  7  8  1  0  0  0
  7 12  2  0  0  0
  8  9  2  0  0  0
  8 53  1  0  0  0
  9 10  1  0  0  0
  9 54  1  0  0  0
 10 11  2  0  0  0
 10 20  1  0  0  0
 11 12  1  0  0  0
 11 13  1  0  0  0
 12 55  1  0  0  0
 13 14  1  0  0  0
 13 56  1  0  0  0
 14 15  1  0  0  0
 14 19  1  0  0  0
 14 57  1  0  0  0
 15 16  1  0  0  0
 15 58  1  0  0  0
 15 59  1  0  0  0
 16 17  1  0  0  0
 16 60  1  0  0  0
 16 61  1  0  0  0
 17 18  1  0  0  0
 18 19  1  0  0  0
 18 62  1  0  0  0
 18 63  1  0  0  0
 19 64  1  0  0  0
 19 65  1  0  0  0
 20 21  2  0  0  0
 20 22  1  0  0  0
 22 23  1  0  0  0
 22 66  1  0  0  0
 23 24  1  0  0  0
 23 31  2  0  0  0
 24 25  1  0  0  0
 24 29  2  0  0  0
 25 26  2  0  0  0
 25 67  1  0  0  0
 26 27  1  0  0  0
 26 32  1  0  0  0
 27 28  2  0  0  0
 27 68  1  0  0  0
 28 29  1  0  0  0
 28 69  1  0  0  0
 29 30  1  0  0  0
 30 31  1  0  0  0
 30 70  1  0  0  0
 32 33  1  0  0  0
 32 71  1  0  0  0
 32 72  1  0  0  0
 33 34  1  0  0  0
 33 38  2  0  0  0
 34 35  2  0  0  0
 34 73  1  0  0  0
 35 36  1  0  0  0
 35 40  1  0  0  0
 36 37  2  0  0  0
 36 74  1  0  0  0
 37 38  1  0  0  0
 37 39  1  0  0  0
 38 75  1  0  0  0
 41 76  1  0  0  0
M  CHG  1  41   1
M  END
> <s_m_entry_id>
34

> <i_f3d_flags>
0

> <r_lp_tautomer_probability>
0.980392156862745

> <r_epik_Ionization_Penalty>
  0.0648

> <r_epik_State_Penalty>
  0.0647

> <i_epik_Tot_Q>
1

> <s_pdb_PDB_TITLE>
Entrectinib

> <s_m_Source_Path>
/media/4tb_disk1/SijieChen/TKI/pharmacophore_hypothesis-2/ligprep57_mae/active_less_than_50

> <s_m_Source_File>
Entrectinib.mae

> <i_m_Source_File_Index>
1

$$$$
Encorafenib
                    3D
 Structure written by MMmdl.
 63 65  0  0  1  0            999 V2000
   -4.0830    1.5396    2.1162 C   0  0  0  0  0  0
   -4.2618    2.6861    1.1095 C   0  0  1  0  0  0
   -4.1054    2.2290   -0.3565 C   0  0  0  0  0  0
   -2.7116    2.0177   -0.7210 N   0  0  0  0  0  0
   -2.0493    0.8144   -0.5674 C   0  0  0  0  0  0
   -2.7651   -0.3149   -0.5355 N   0  0  0  0  0  0
   -2.0809   -1.4656   -0.3609 C   0  0  0  0  0  0
   -0.6804   -1.4802   -0.2026 C   0  0  0  0  0  0
   -0.0265   -0.2291   -0.2366 C   0  0  0  0  0  0
   -0.7256    0.9103   -0.4414 N   0  0  0  0  0  0
    1.4286   -0.0888   -0.0533 C   0  0  0  0  0  0
    2.3821   -0.9746   -0.4620 C   0  0  0  0  0  0
    3.5968   -0.4415   -0.0869 N   0  0  0  0  0  0
    3.4468    0.7384    0.5614 N   0  0  0  0  0  0
    2.1394    0.9658    0.5993 C   0  0  0  0  0  0
    1.6341    2.1597    1.2873 C   0  0  0  0  0  0
    0.5746    2.0339    2.2115 C   0  0  0  0  0  0
    0.0579    3.1671    2.8652 C   0  0  0  0  0  0
    0.6083    4.4368    2.6130 C   0  0  0  0  0  0
    1.6743    4.5779    1.6986 C   0  0  0  0  0  0
    2.1800    3.4401    1.0339 C   0  0  0  0  0  0
    3.1901    3.5865    0.1408 F   0  0  0  0  0  0
    2.2425    5.8277    1.4320 N   0  0  0  0  0  0
    1.8868    7.3546    2.1721 S   0  0  0  0  0  0
    0.5280    7.7148    1.7394 O   0  0  0  0  0  0
    2.2182    7.2067    3.5975 O   0  0  0  0  0  0
    3.1029    8.4784    1.3741 C   0  0  0  0  0  0
   -1.2529    2.9989    3.9738 Cl  0  0  0  0  0  0
    4.9254   -0.9913   -0.3115 C   0  0  0  0  0  0
    5.6364   -1.2941    1.0175 C   0  0  0  0  0  0
    5.7608   -0.0676   -1.2127 C   0  0  0  0  0  0
   -5.5737    3.2926    1.3050 N   0  0  0  0  0  0
   -5.8750    4.6006    0.9621 C   0  0  0  0  0  0
   -5.1082    5.4214    0.4558 O   0  0  0  0  0  0
   -7.1594    4.8343    1.2685 O   0  0  0  0  0  0
   -7.7239    6.1062    0.9975 C   0  0  0  0  0  0
   -3.0781    1.1204    2.0667 H   0  0  0  0  0  0
   -4.7909    0.7315    1.9294 H   0  0  0  0  0  0
   -4.2351    1.8883    3.1382 H   0  0  0  0  0  0
   -3.5079    3.4451    1.3287 H   0  0  0  0  0  0
   -4.7115    1.3447   -0.5553 H   0  0  0  0  0  0
   -4.4798    3.0042   -1.0256 H   0  0  0  0  0  0
   -2.1256    2.8399   -0.7280 H   0  0  0  0  0  0
   -2.6543   -2.3803   -0.3378 H   0  0  0  0  0  0
   -0.1416   -2.4034   -0.0482 H   0  0  0  0  0  0
    2.3014   -1.9145   -0.9877 H   0  0  0  0  0  0
    0.1467    1.0630    2.4144 H   0  0  0  0  0  0
    0.2035    5.2965    3.1259 H   0  0  0  0  0  0
    2.9903    5.8216    0.7535 H   0  0  0  0  0  0
    2.9794    9.4856    1.7716 H   0  0  0  0  0  0
    2.9351    8.4914    0.2973 H   0  0  0  0  0  0
    4.1141    8.1290    1.5818 H   0  0  0  0  0  0
    4.7950   -1.9371   -0.8390 H   0  0  0  0  0  0
    6.5981   -1.7775    0.8437 H   0  0  0  0  0  0
    5.0397   -1.9631    1.6383 H   0  0  0  0  0  0
    5.8228   -0.3851    1.5903 H   0  0  0  0  0  0
    6.7260   -0.5174   -1.4461 H   0  0  0  0  0  0
    5.9511    0.8942   -0.7351 H   0  0  0  0  0  0
    5.2501    0.1250   -2.1570 H   0  0  0  0  0  0
   -6.3177    2.7436    1.7107 H   0  0  0  0  0  0
   -8.7633    6.1280    1.3244 H   0  0  0  0  0  0
   -7.6986    6.3218   -0.0714 H   0  0  0  0  0  0
   -7.1846    6.8935    1.5258 H   0  0  0  0  0  0
  1  2  1  0  0  0
  1 37  1  0  0  0
  1 38  1  0  0  0
  1 39  1  0  0  0
  2  3  1  0  0  0
  2 32  1  0  0  0
  2 40  1  0  0  0
  3  4  1  0  0  0
  3 41  1  0  0  0
  3 42  1  0  0  0
  4  5  1  0  0  0
  4 43  1  0  0  0
  5  6  1  0  0  0
  5 10  2  0  0  0
  6  7  2  0  0  0
  7  8  1  0  0  0
  7 44  1  0  0  0
  8  9  2  0  0  0
  8 45  1  0  0  0
  9 10  1  0  0  0
  9 11  1  0  0  0
 11 12  2  0  0  0
 11 15  1  0  0  0
 12 13  1  0  0  0
 12 46  1  0  0  0
 13 14  1  0  0  0
 13 29  1  0  0  0
 14 15  2  0  0  0
 15 16  1  0  0  0
 16 17  1  0  0  0
 16 21  2  0  0  0
 17 18  2  0  0  0
 17 47  1  0  0  0
 18 19  1  0  0  0
 18 28  1  0  0  0
 19 20  2  0  0  0
 19 48  1  0  0  0
 20 21  1  0  0  0
 20 23  1  0  0  0
 21 22  1  0  0  0
 23 24  1  0  0  0
 23 49  1  0  0  0
 24 25  2  0  0  0
 24 26  2  0  0  0
 24 27  1  0  0  0
 27 50  1  0  0  0
 27 51  1  0  0  0
 27 52  1  0  0  0
 29 30  1  0  0  0
 29 31  1  0  0  0
 29 53  1  0  0  0
 30 54  1  0  0  0
 30 55  1  0  0  0
 30 56  1  0  0  0
 31 57  1  0  0  0
 31 58  1  0  0  0
 31 59  1  0  0  0
 32 33  1  0  0  0
 32 60  1  0  0  0
 33 34  2  0  0  0
 33 35  1  0  0  0
 35 36  1  0  0  0
 36 61  1  0  0  0
 36 62  1  0  0  0
 36 63  1  0  0  0
M  END
> <s_m_entry_id>
35

> <i_f3d_flags>
0

> <r_lp_tautomer_probability>
0.999999987636

> <r_epik_Ionization_Penalty>
  0.3904

> <r_epik_State_Penalty>
  0.3885

> <i_epik_Tot_Q>
0

> <s_pdb_PDB_TITLE>
Encorafenib

> <s_m_Source_Path>
/media/4tb_disk1/SijieChen/TKI/pharmacophore_hypothesis-2/ligprep57_mae/active_less_than_50

> <s_m_Source_File>
Encorafenib.mae

> <i_m_Source_File_Index>
1

$$$$
Dasatinib
                    3D
 Structure written by MMmdl.
 59 62  0  0  1  0            999 V2000
   -6.3735    3.5531    2.5791 C   0  0  0  0  0  0
   -6.8113    3.7399    1.1349 C   0  0  0  0  0  0
   -8.1380    4.1493    0.8836 C   0  0  0  0  0  0
   -8.6047    4.2926   -0.4358 C   0  0  0  0  0  0
   -7.7486    4.0186   -1.5171 C   0  0  0  0  0  0
   -6.4203    3.6147   -1.2832 C   0  0  0  0  0  0
   -5.9368    3.4944    0.0414 C   0  0  0  0  0  0
   -4.5964    3.0716    0.2318 N   0  0  0  0  0  0
   -3.6093    3.8201    0.7556 C   0  0  0  0  0  0
   -3.7912    4.9278    1.2607 O   0  0  0  0  0  0
   -2.2617    3.2164    0.7693 C   0  0  0  0  0  0
   -1.1876    3.4628    1.5884 C   0  0  0  0  0  0
   -0.0579    2.7020    1.2795 N   0  0  0  0  0  0
   -0.2503    1.9007    0.2267 C   0  0  0  0  0  0
   -1.8634    2.0359   -0.4604 S   0  0  0  0  0  0
    0.6714    1.0207   -0.3434 N   0  0  0  0  0  0
    1.9713    0.6940    0.0746 C   0  0  0  0  0  0
    2.7462   -0.1694   -0.7281 C   0  0  0  0  0  0
    4.0498   -0.4864   -0.2756 C   0  0  0  0  0  0
    4.5094    0.0223    0.8940 N   0  0  0  0  0  0
    3.6971    0.8290    1.5800 C   0  0  0  0  0  0
    2.4612    1.1918    1.2322 N   0  0  0  0  0  0
    4.2369    1.3906    2.8786 C   0  0  0  0  0  0
    4.8893   -1.3371   -1.0263 N   0  0  0  0  0  0
    5.0413   -0.9883   -2.4392 C   0  0  0  0  0  0
    5.7120   -2.1392   -3.2114 C   0  0  0  0  0  0
    6.7648   -2.9255   -1.2343 C   0  0  0  0  0  0
    6.1335   -1.7936   -0.4040 C   0  0  0  0  0  0
    7.6406   -3.6118   -3.3702 C   0  0  0  0  0  0
    8.1281   -3.2339   -4.7804 C   0  0  0  0  0  0
    7.1583   -3.5700   -5.7502 O   0  0  0  0  0  0
   -5.3970    3.2829   -2.6375 Cl  0  0  0  0  0  0
    6.9948   -2.5318   -2.6242 N   0  0  0  0  0  0
   -5.7160    2.6903    2.6860 H   0  0  0  0  0  0
   -7.2335    3.3907    3.2293 H   0  0  0  0  0  0
   -5.8478    4.4386    2.9352 H   0  0  0  0  0  0
   -8.8097    4.3466    1.7064 H   0  0  0  0  0  0
   -9.6231    4.6030   -0.6180 H   0  0  0  0  0  0
   -8.1131    4.1189   -2.5289 H   0  0  0  0  0  0
   -4.3244    2.2158   -0.2297 H   0  0  0  0  0  0
   -1.1418    4.1554    2.4158 H   0  0  0  0  0  0
    0.3589    0.5560   -1.1831 H   0  0  0  0  0  0
    2.3451   -0.5776   -1.6437 H   0  0  0  0  0  0
    3.4530    1.8826    3.4561 H   0  0  0  0  0  0
    5.0199    2.1213    2.6752 H   0  0  0  0  0  0
    4.6598    0.5947    3.4923 H   0  0  0  0  0  0
    4.0821   -0.7672   -2.9045 H   0  0  0  0  0  0
    5.6458   -0.0836   -2.5162 H   0  0  0  0  0  0
    5.0394   -2.9980   -3.2424 H   0  0  0  0  0  0
    5.8548   -1.8190   -4.2430 H   0  0  0  0  0  0
    7.7087   -3.2168   -0.7720 H   0  0  0  0  0  0
    6.1199   -3.8054   -1.1999 H   0  0  0  0  0  0
    6.8274   -0.9558   -0.3210 H   0  0  0  0  0  0
    5.9379   -2.1559    0.6061 H   0  0  0  0  0  0
    6.9976   -4.4928   -3.4087 H   0  0  0  0  0  0
    8.5231   -3.9211   -2.8086 H   0  0  0  0  0  0
    8.3863   -2.1765   -4.8484 H   0  0  0  0  0  0
    9.0312   -3.7967   -5.0177 H   0  0  0  0  0  0
    6.3734   -3.0750   -5.5719 H   0  0  0  0  0  0
  1  2  1  0  0  0
  1 34  1  0  0  0
  1 35  1  0  0  0
  1 36  1  0  0  0
  2  3  1  0  0  0
  2  7  2  0  0  0
  3  4  2  0  0  0
  3 37  1  0  0  0
  4  5  1  0  0  0
  4 38  1  0  0  0
  5  6  2  0  0  0
  5 39  1  0  0  0
  6  7  1  0  0  0
  6 32  1  0  0  0
  7  8  1  0  0  0
  8  9  1  0  0  0
  8 40  1  0  0  0
  9 10  2  0  0  0
  9 11  1  0  0  0
 11 12  2  0  0  0
 11 15  1  0  0  0
 12 13  1  0  0  0
 12 41  1  0  0  0
 13 14  2  0  0  0
 14 15  1  0  0  0
 14 16  1  0  0  0
 16 17  1  0  0  0
 16 42  1  0  0  0
 17 18  1  0  0  0
 17 22  2  0  0  0
 18 19  2  0  0  0
 18 43  1  0  0  0
 19 20  1  0  0  0
 19 24  1  0  0  0
 20 21  2  0  0  0
 21 22  1  0  0  0
 21 23  1  0  0  0
 23 44  1  0  0  0
 23 45  1  0  0  0
 23 46  1  0  0  0
 24 25  1  0  0  0
 24 28  1  0  0  0
 25 26  1  0  0  0
 25 47  1  0  0  0
 25 48  1  0  0  0
 26 49  1  0  0  0
 26 50  1  0  0  0
 26 33  1  0  0  0
 27 28  1  0  0  0
 27 51  1  0  0  0
 27 52  1  0  0  0
 27 33  1  0  0  0
 28 53  1  0  0  0
 28 54  1  0  0  0
 29 30  1  0  0  0
 29 55  1  0  0  0
 29 56  1  0  0  0
 29 33  1  0  0  0
 30 31  1  0  0  0
 30 57  1  0  0  0
 30 58  1  0  0  0
 31 59  1  0  0  0
M  END
> <s_m_entry_id>
36

> <i_f3d_flags>
0

> <r_lp_tautomer_probability>
0.999999999985434

> <r_epik_Ionization_Penalty>
  0.4569

> <r_epik_State_Penalty>
  0.4220

> <i_epik_Tot_Q>
0

> <s_pdb_PDB_TITLE>
Dasatinib

> <s_m_Source_Path>
/media/4tb_disk1/SijieChen/TKI/pharmacophore_hypothesis-2/ligprep57_mae/active_less_than_50

> <s_m_Source_File>
Dasatinib.mae

> <i_m_Source_File_Index>
1

$$$$
Dacomitinib
                    3D
 Structure written by MMmdl.
 59 62  0  0  1  0            999 V2000
    7.2862    7.1209    0.2470 Cl  0  0  0  0  0  0
    5.9221    8.5523   -1.9814 F   0  0  0  0  0  0
   -0.4560    2.0943    0.3040 O   0  0  0  0  0  0
    1.4324   -2.2880    0.7673 O   0  0  0  0  0  0
   -5.2404    1.5387   -1.3408 N   0  3  0  0  0  0
    0.1218   -0.0755   -0.0926 N   0  0  0  0  0  0
    3.8854    3.4274   -1.0785 N   0  0  0  0  0  0
    5.7223   -0.0445    0.3012 N   0  0  0  0  0  0
    5.8334    2.1988   -0.4920 N   0  0  0  0  0  0
   -7.3063    2.9520   -2.8895 C   0  0  0  0  0  0
   -6.9838    1.4713   -3.1269 C   0  0  0  0  0  0
   -6.0699    3.6736   -2.3384 C   0  0  0  0  0  0
   -5.5394    2.9729   -1.0763 C   0  0  0  0  0  0
   -6.4349    0.8147   -1.8490 C   0  0  0  0  0  0
   -4.6172    0.8460   -0.1855 C   0  0  0  0  0  0
   -3.1730    1.2706   -0.0003 C   0  0  0  0  0  0
   -2.1191    0.4458   -0.1422 C   0  0  0  0  0  0
   -0.7620    0.9299    0.0431 C   0  0  0  0  0  0
    1.5394   -0.0251    0.0112 C   0  0  0  0  0  0
    3.6911    1.1226   -0.2542 C   0  0  0  0  0  0
    2.2830    1.1203   -0.3542 C   0  0  0  0  0  0
    2.2083   -1.1907    0.4489 C   0  0  0  0  0  0
    4.3741   -0.0360    0.2035 C   0  0  0  0  0  0
    4.4852    2.2501   -0.5945 C   0  0  0  0  0  0
    3.6221   -1.1778    0.5454 C   0  0  0  0  0  0
    4.4407    4.7011   -1.2807 C   0  0  0  0  0  0
    6.3744    1.0643   -0.0489 C   0  0  0  0  0  0
    5.4941    5.2169   -0.4894 C   0  0  0  0  0  0
    3.8809    5.5137   -2.2891 C   0  0  0  0  0  0
    2.0819   -3.4668    1.2202 C   0  0  0  0  0  0
    5.9970    6.5117   -0.7258 C   0  0  0  0  0  0
    4.3827    6.8075   -2.5275 C   0  0  0  0  0  0
    5.4434    7.3067   -1.7487 C   0  0  0  0  0  0
   -0.2693   -1.0007   -0.1963 H   0  0  0  0  0  0
    2.9265    3.3245   -1.3769 H   0  0  0  0  0  0
   -7.6360    3.4205   -3.8173 H   0  0  0  0  0  0
   -8.1325    3.0410   -2.1828 H   0  0  0  0  0  0
   -7.8778    0.9447   -3.4623 H   0  0  0  0  0  0
   -6.2513    1.3797   -3.9300 H   0  0  0  0  0  0
   -5.2891    3.6983   -3.0998 H   0  0  0  0  0  0
   -6.3147    4.7121   -2.1125 H   0  0  0  0  0  0
   -6.2718    3.0491   -0.2710 H   0  0  0  0  0  0
   -4.6443    3.4936   -0.7370 H   0  0  0  0  0  0
   -6.1721   -0.2214   -2.0661 H   0  0  0  0  0  0
   -7.2048    0.7916   -1.0757 H   0  0  0  0  0  0
   -5.1815    1.0406    0.7274 H   0  0  0  0  0  0
   -4.6391   -0.2330   -0.3458 H   0  0  0  0  0  0
   -3.0161    2.3067    0.2639 H   0  0  0  0  0  0
   -2.2897   -0.5903   -0.4006 H   0  0  0  0  0  0
    1.7755    1.9974   -0.7242 H   0  0  0  0  0  0
    4.1642   -2.0477    0.8835 H   0  0  0  0  0  0
    7.4509    1.0400    0.0323 H   0  0  0  0  0  0
    5.9178    4.6365    0.3160 H   0  0  0  0  0  0
    3.0644    5.1437   -2.8923 H   0  0  0  0  0  0
    1.3338   -4.2317    1.4280 H   0  0  0  0  0  0
    2.6345   -3.2878    2.1436 H   0  0  0  0  0  0
    2.7587   -3.8655    0.4633 H   0  0  0  0  0  0
    3.9521    7.4176   -3.3077 H   0  0  0  0  0  0
   -4.5594    1.5136   -2.0867 H   0  0  0  0  0  0
  1 31  1  0  0  0
  2 33  1  0  0  0
  3 18  2  0  0  0
  4 22  1  0  0  0
  4 30  1  0  0  0
  5 13  1  0  0  0
  5 14  1  0  0  0
  5 15  1  0  0  0
  5 59  1  0  0  0
  6 18  1  0  0  0
  6 19  1  0  0  0
  6 34  1  0  0  0
  7 24  1  0  0  0
  7 26  1  0  0  0
  7 35  1  0  0  0
  8 23  1  0  0  0
  8 27  2  0  0  0
  9 24  2  0  0  0
  9 27  1  0  0  0
 10 11  1  0  0  0
 10 12  1  0  0  0
 10 36  1  0  0  0
 10 37  1  0  0  0
 11 14  1  0  0  0
 11 38  1  0  0  0
 11 39  1  0  0  0
 12 13  1  0  0  0
 12 40  1  0  0  0
 12 41  1  0  0  0
 13 42  1  0  0  0
 13 43  1  0  0  0
 14 44  1  0  0  0
 14 45  1  0  0  0
 15 16  1  0  0  0
 15 46  1  0  0  0
 15 47  1  0  0  0
 16 17  2  0  0  0
 16 48  1  0  0  0
 17 18  1  0  0  0
 17 49  1  0  0  0
 19 21  1  0  0  0
 19 22  2  0  0  0
 20 21  2  0  0  0
 20 23  1  0  0  0
 20 24  1  0  0  0
 21 50  1  0  0  0
 22 25  1  0  0  0
 23 25  2  0  0  0
 25 51  1  0  0  0
 26 28  2  0  0  0
 26 29  1  0  0  0
 27 52  1  0  0  0
 28 31  1  0  0  0
 28 53  1  0  0  0
 29 32  2  0  0  0
 29 54  1  0  0  0
 30 55  1  0  0  0
 30 56  1  0  0  0
 30 57  1  0  0  0
 31 33  2  0  0  0
 32 33  1  0  0  0
 32 58  1  0  0  0
M  CHG  1   5   1
M  END
> <s_m_entry_id>
37

> <i_f3d_flags>
0

> <r_lp_tautomer_probability>
0.999978000241998

> <r_epik_Ionization_Penalty>
  0.0867

> <r_epik_State_Penalty>
  0.1083

> <i_epik_Tot_Q>
1

> <s_m_Source_Path>
/media/4tb_disk1/SijieChen/TKI/pharmacophore_hypothesis-2/ligprep57_mae/active_less_than_50

> <s_m_Source_File>
Dacomitinib.mae

> <i_m_Source_File_Index>
1

> <chiral flag>
0

> <version>
0

> <DATABASE_ID>
DB11963

> <DATABASE_NAME>
drugbank

> <SMILES>
COC1=C(NC(=O)\C=C\CN2CCCCC2)C=C2C(NC3=CC(Cl)=C(F)C=C3)=NC=NC2=C1

> <INCHI_IDENTIFIER>
InChI=1S/C24H25ClFN5O2/c1-33-22-14-20-17(24(28-15-27-20)29-16-7-8-19(26)18(25)12-16)13-21(22)30-23(32)6-5-11-31-9-3-2-4-10-31/h5-8,12-15H,2-4,9-11H2,1H3,(H,30,32)(H,27,28,29)/b6-5+

> <INCHI_KEY>
LVXJQMNHJWSHET-AATRIKPKSA-N

> <FORMULA>
C24H25ClFN5O2

> <MOLECULAR_WEIGHT>
469.939

> <EXACT_MASS>
469.168080981

> <JCHEM_ACCEPTOR_COUNT>
6

> <JCHEM_ATOM_COUNT>
58

> <JCHEM_AVERAGE_POLARIZABILITY>
49.0607718819471

> <JCHEM_BIOAVAILABILITY>
1

> <JCHEM_DONOR_COUNT>
2

> <JCHEM_FORMAL_CHARGE>
0

> <JCHEM_GHOSE_FILTER>
1

> <JCHEM_IUPAC>
(2E)-N-{4-[(3-chloro-4-fluorophenyl)amino]-7-methoxyquinazolin-6-yl}-4-(piperidin-1-yl)but-2-enamide

> <ALOGPS_LOGP>
4.88

> <JCHEM_LOGP>
4.707501069

> <ALOGPS_LOGS>
-4.73

> <JCHEM_MDDR_LIKE_RULE>
1

> <JCHEM_NUMBER_OF_RINGS>
4

> <JCHEM_PHYSIOLOGICAL_CHARGE>
1

> <JCHEM_PKA>
16.1156691099159

> <JCHEM_PKA_STRONGEST_ACIDIC>
12.4996193292915

> <JCHEM_PKA_STRONGEST_BASIC>
8.55249080363349

> <JCHEM_POLAR_SURFACE_AREA>
79.38

> <JCHEM_REFRACTIVITY>
129.9123

> <JCHEM_ROTATABLE_BOND_COUNT>
7

> <JCHEM_RULE_OF_FIVE>
1

> <ALOGPS_SOLUBILITY>
8.74e-03 g/l

> <JCHEM_TRADITIONAL_IUPAC>
dacomitinib

> <JCHEM_VEBER_RULE>
0

> <DRUGBANK_ID>
DB11963

> <DRUG_GROUPS>
approved; investigational

> <GENERIC_NAME>
Dacomitinib

> <SYNONYMS>
Dacomitinib; Dacomitinib anhydrous; Dacomitinibum

> <PRODUCTS>
Vizimpro

> <SALTS>
Dacomitinib monohydrate

$$$$
Dabrafenib
                    3D
 Structure written by MMmdl.
 55 58  0  0  1  0            999 V2000
   -2.5935   -3.1437   -1.0334 C   0  0  0  0  0  0
   -2.9240   -2.1000    0.0509 C   0  0  0  0  0  0
   -4.3732   -1.6223   -0.1852 C   0  0  0  0  0  0
   -2.8657   -2.7365    1.4529 C   0  0  0  0  0  0
   -1.9475   -0.9519   -0.0315 C   0  0  0  0  0  0
   -0.6327   -1.1082    0.1427 N   0  0  0  0  0  0
    0.1078    0.0741    0.0240 C   0  0  0  0  0  0
   -0.6892    1.1643   -0.2642 C   0  0  0  0  0  0
   -2.3777    0.7240   -0.3591 S   0  0  0  0  0  0
   -0.3252    2.5652   -0.4841 C   0  0  0  0  0  0
   -1.1646    3.6425   -0.1167 C   0  0  0  0  0  0
   -0.6809    4.9399   -0.3816 C   0  0  0  0  0  0
    0.5241    5.1477   -0.9547 N   0  0  0  0  0  0
    1.2348    4.0610   -1.2601 C   0  0  0  0  0  0
    0.8792    2.7911   -1.0596 N   0  0  0  0  0  0
    2.4622    4.2702   -1.8384 N   0  0  0  0  0  0
    1.5558    0.0112    0.2369 C   0  0  0  0  0  0
    2.1620    0.8502    1.1960 C   0  0  0  0  0  0
    3.5516    0.7961    1.4114 C   0  0  0  0  0  0
    4.3451   -0.0997    0.6713 C   0  0  0  0  0  0
    3.7509   -0.9431   -0.2921 C   0  0  0  0  0  0
    2.3580   -0.8832   -0.5078 C   0  0  0  0  0  0
    1.7924   -1.6876   -1.4418 F   0  0  0  0  0  0
    4.5125   -1.8428   -1.0438 N   0  0  0  0  0  0
    6.2070   -2.1889   -0.9270 S   0  0  0  0  0  0
    6.9037   -0.9546   -1.3217 O   0  0  0  0  0  0
    6.4090   -2.7709    0.4090 O   0  0  0  0  0  0
    6.4293   -3.4440   -2.1960 C   0  0  0  0  0  0
    6.4203   -4.8178   -1.8590 C   0  0  0  0  0  0
    6.5873   -5.7863   -2.8684 C   0  0  0  0  0  0
    6.7567   -5.3919   -4.2091 C   0  0  0  0  0  0
    6.7534   -4.0252   -4.5460 C   0  0  0  0  0  0
    6.5863   -3.0492   -3.5443 C   0  0  0  0  0  0
    6.5673   -1.7412   -3.8949 F   0  0  0  0  0  0
    6.2449   -5.2272   -0.5803 F   0  0  0  0  0  0
   -3.2914   -3.9812   -1.0065 H   0  0  0  0  0  0
   -1.5914   -3.5533   -0.9023 H   0  0  0  0  0  0
   -2.6413   -2.7066   -2.0314 H   0  0  0  0  0  0
   -4.4933   -1.1718   -1.1714 H   0  0  0  0  0  0
   -4.6798   -0.8853    0.5578 H   0  0  0  0  0  0
   -5.0788   -2.4516   -0.1236 H   0  0  0  0  0  0
   -3.5718   -3.5624    1.5448 H   0  0  0  0  0  0
   -3.1053   -2.0093    2.2295 H   0  0  0  0  0  0
   -1.8737   -3.1339    1.6705 H   0  0  0  0  0  0
   -2.1268    3.4920    0.3498 H   0  0  0  0  0  0
   -1.2619    5.8144   -0.1292 H   0  0  0  0  0  0
    3.0454    3.4878   -2.0970 H   0  0  0  0  0  0
    2.7870    5.2085   -2.0214 H   0  0  0  0  0  0
    1.5605    1.5396    1.7706 H   0  0  0  0  0  0
    4.0093    1.4415    2.1465 H   0  0  0  0  0  0
    5.4094   -0.1288    0.8512 H   0  0  0  0  0  0
    3.9904   -2.3869   -1.7155 H   0  0  0  0  0  0
    6.5819   -6.8358   -2.6131 H   0  0  0  0  0  0
    6.8833   -6.1378   -4.9799 H   0  0  0  0  0  0
    6.8751   -3.7242   -5.5761 H   0  0  0  0  0  0
  1  2  1  0  0  0
  1 36  1  0  0  0
  1 37  1  0  0  0
  1 38  1  0  0  0
  2  3  1  0  0  0
  2  4  1  0  0  0
  2  5  1  0  0  0
  3 39  1  0  0  0
  3 40  1  0  0  0
  3 41  1  0  0  0
  4 42  1  0  0  0
  4 43  1  0  0  0
  4 44  1  0  0  0
  5  6  2  0  0  0
  5  9  1  0  0  0
  6  7  1  0  0  0
  7  8  2  0  0  0
  7 17  1  0  0  0
  8  9  1  0  0  0
  8 10  1  0  0  0
 10 11  1  0  0  0
 10 15  2  0  0  0
 11 12  2  0  0  0
 11 45  1  0  0  0
 12 13  1  0  0  0
 12 46  1  0  0  0
 13 14  2  0  0  0
 14 15  1  0  0  0
 14 16  1  0  0  0
 16 47  1  0  0  0
 16 48  1  0  0  0
 17 18  1  0  0  0
 17 22  2  0  0  0
 18 19  2  0  0  0
 18 49  1  0  0  0
 19 20  1  0  0  0
 19 50  1  0  0  0
 20 21  2  0  0  0
 20 51  1  0  0  0
 21 22  1  0  0  0
 21 24  1  0  0  0
 22 23  1  0  0  0
 24 25  1  0  0  0
 24 52  1  0  0  0
 25 26  2  0  0  0
 25 27  2  0  0  0
 25 28  1  0  0  0
 28 29  1  0  0  0
 28 33  2  0  0  0
 29 30  2  0  0  0
 29 35  1  0  0  0
 30 31  1  0  0  0
 30 53  1  0  0  0
 31 32  2  0  0  0
 31 54  1  0  0  0
 32 33  1  0  0  0
 32 55  1  0  0  0
 33 34  1  0  0  0
M  END
> <s_m_entry_id>
38

> <i_f3d_flags>
0

> <r_lp_tautomer_probability>
0.999999987636

> <r_epik_Ionization_Penalty>
  0.4058

> <r_epik_State_Penalty>
  0.4054

> <i_epik_Tot_Q>
0

> <s_pdb_PDB_TITLE>
Dabrafenib

> <s_m_Source_Path>
/media/4tb_disk1/SijieChen/TKI/pharmacophore_hypothesis-2/ligprep57_mae/active_less_than_50

> <s_m_Source_File>
Dabrafenib.mae

> <i_m_Source_File_Index>
1

$$$$
Crizotinib
                    3D
 Structure written by MMmdl.
 53 56  0  0  1  0            999 V2000
   -2.1994    0.8002   -0.1804 C   0  0  0  0  0  0
   -0.7317    1.1593    0.0886 C   0  0  1  0  0  0
   -0.5657    1.8493    1.4532 C   0  0  0  0  0  0
   -0.4237    3.2622    1.5272 C   0  0  0  0  0  0
   -0.2693    3.8991    2.7734 C   0  0  0  0  0  0
   -0.2645    3.1491    3.9601 C   0  0  0  0  0  0
   -0.4229    1.7547    3.9047 C   0  0  0  0  0  0
   -0.5785    1.1016    2.6645 C   0  0  0  0  0  0
   -0.7930   -0.6164    2.6849 Cl  0  0  0  0  0  0
   -0.4290    1.0397    5.0552 F   0  0  0  0  0  0
   -0.4313    4.2635    0.1161 Cl  0  0  0  0  0  0
    0.0388   -0.0330   -0.0550 O   0  0  0  0  0  0
    1.4189    0.0425   -0.0795 C   0  0  0  0  0  0
    2.1563    1.2516   -0.1164 C   0  0  0  0  0  0
    3.5681    1.2270   -0.1195 C   0  0  0  0  0  0
    4.1827   -0.0443   -0.1050 C   0  0  0  0  0  0
    2.1562   -1.1621   -0.0669 C   0  0  0  0  0  0
    1.4997   -2.3909   -0.0316 N   0  0  0  0  0  0
    4.3585    2.4726   -0.1296 C   0  0  0  0  0  0
    5.7751    2.5930   -0.1755 C   0  0  0  0  0  0
    6.1582    3.8598   -0.1596 N   0  0  0  0  0  0
    5.0078    4.5751   -0.1069 N   0  0  0  0  0  0
    3.8962    3.7569   -0.0860 C   0  0  0  0  0  0
    5.0489    6.0296   -0.0686 C   0  0  0  0  0  0
    5.7306    6.5470    1.2142 C   0  0  0  0  0  0
    5.7838    8.0842    1.2272 C   0  0  0  0  0  0
    5.8017    8.1526   -1.2382 C   0  0  0  0  0  0
    5.7493    6.6171   -1.3108 C   0  0  0  0  0  0
    3.5033   -1.2092   -0.0817 N   0  0  0  0  0  0
    6.4554    8.5961    0.0125 N   0  3  0  0  0  0
   -2.8303    1.6891   -0.1530 H   0  0  0  0  0  0
   -2.5861    0.0948    0.5549 H   0  0  0  0  0  0
   -2.3130    0.3444   -1.1643 H   0  0  0  0  0  0
   -0.4339    1.8194   -0.7236 H   0  0  0  0  0  0
   -0.1567    4.9724    2.8206 H   0  0  0  0  0  0
   -0.1473    3.6432    4.9134 H   0  0  0  0  0  0
    1.6562    2.2054   -0.1378 H   0  0  0  0  0  0
    5.2581   -0.1392   -0.1079 H   0  0  0  0  0  0
    0.4917   -2.4472   -0.0048 H   0  0  0  0  0  0
    2.0113   -3.2611   -0.0107 H   0  0  0  0  0  0
    6.5279    1.8197   -0.2160 H   0  0  0  0  0  0
    2.8933    4.1553   -0.0396 H   0  0  0  0  0  0
    4.0152    6.3800   -0.0668 H   0  0  0  0  0  0
    5.1950    6.1886    2.0942 H   0  0  0  0  0  0
    6.7450    6.1523    1.2879 H   0  0  0  0  0  0
    4.7765    8.4992    1.2826 H   0  0  0  0  0  0
    6.3221    8.4368    2.1072 H   0  0  0  0  0  0
    6.3528    8.5529   -2.0894 H   0  0  0  0  0  0
    4.7951    8.5701   -1.2856 H   0  0  0  0  0  0
    6.7655    6.2287   -1.3916 H   0  0  0  0  0  0
    5.2274    6.3074   -2.2170 H   0  0  0  0  0  0
    6.4601    9.6058    0.0404 H   0  0  0  0  0  0
    7.4102    8.2662    0.0103 H   0  0  0  0  0  0
  1  2  1  0  0  0
  1 31  1  0  0  0
  1 32  1  0  0  0
  1 33  1  0  0  0
  2  3  1  0  0  0
  2 12  1  0  0  0
  2 34  1  0  0  0
  3  4  2  0  0  0
  3  8  1  0  0  0
  4  5  1  0  0  0
  4 11  1  0  0  0
  5  6  2  0  0  0
  5 35  1  0  0  0
  6  7  1  0  0  0
  6 36  1  0  0  0
  7  8  2  0  0  0
  7 10  1  0  0  0
  8  9  1  0  0  0
 12 13  1  0  0  0
 13 14  1  0  0  0
 13 17  2  0  0  0
 14 15  2  0  0  0
 14 37  1  0  0  0
 15 16  1  0  0  0
 15 19  1  0  0  0
 16 38  1  0  0  0
 16 29  2  0  0  0
 17 18  1  0  0  0
 17 29  1  0  0  0
 18 39  1  0  0  0
 18 40  1  0  0  0
 19 20  1  0  0  0
 19 23  2  0  0  0
 20 21  2  0  0  0
 20 41  1  0  0  0
 21 22  1  0  0  0
 22 23  1  0  0  0
 22 24  1  0  0  0
 23 42  1  0  0  0
 24 25  1  0  0  0
 24 28  1  0  0  0
 24 43  1  0  0  0
 25 26  1  0  0  0
 25 44  1  0  0  0
 25 45  1  0  0  0
 26 46  1  0  0  0
 26 47  1  0  0  0
 26 30  1  0  0  0
 27 28  1  0  0  0
 27 48  1  0  0  0
 27 49  1  0  0  0
 27 30  1  0  0  0
 28 50  1  0  0  0
 28 51  1  0  0  0
 30 52  1  0  0  0
 30 53  1  0  0  0
M  CHG  1  30   1
M  END
> <s_m_entry_id>
39

> <i_f3d_flags>
0

> <r_lp_tautomer_probability>
0.999999404453161

> <r_epik_Ionization_Penalty>
  0.3436

> <r_epik_State_Penalty>
  0.3362

> <i_epik_Tot_Q>
1

> <s_pdb_PDB_TITLE>
Crizotinib

> <s_m_Source_Path>
/media/4tb_disk1/SijieChen/TKI/pharmacophore_hypothesis-2/ligprep57_mae/active_less_than_50

> <s_m_Source_File>
Crizotinib.mae

> <i_m_Source_File_Index>
1

$$$$
Cobimetinib
                    3D
 Structure written by MMmdl.
 52 55  0  0  1  0            999 V2000
   -1.5223   -3.8884   -3.7457 C   0  0  0  0  0  0
   -1.2000   -5.2580   -3.7111 C   0  0  0  0  0  0
   -0.6265   -5.8145   -2.5524 C   0  0  0  0  0  0
   -0.3807   -5.0044   -1.4267 C   0  0  0  0  0  0
   -0.7166   -3.6330   -1.4469 C   0  0  0  0  0  0
   -1.2777   -3.0776   -2.6207 C   0  0  0  0  0  0
   -0.4439   -2.8609   -0.3077 N   0  0  0  0  0  0
   -0.8826   -1.5571   -0.0161 C   0  0  0  0  0  0
   -2.2553   -1.2276   -0.1468 C   0  0  0  0  0  0
   -2.7172    0.0627    0.1724 C   0  0  0  0  0  0
   -1.8191    1.0359    0.6396 C   0  0  0  0  0  0
   -0.4595    0.7153    0.7961 C   0  0  0  0  0  0
    0.0227   -0.5768    0.4835 C   0  0  0  0  0  0
    1.4951   -0.8555    0.6553 C   0  0  0  0  0  0
    2.1417   -1.4382   -0.2158 O   0  0  0  0  0  0
    2.0679   -0.5087    1.8827 N   0  0  0  0  0  0
    1.3696   -0.7755    3.1310 C   0  0  0  0  0  0
    2.7667   -0.8759    3.7703 C   0  0  0  0  0  0
    3.2838   -1.1571    2.3478 C   0  0  0  0  0  0
    2.9164   -1.9520    4.6765 O   0  0  0  0  0  0
    3.3128    0.3742    4.4942 C   0  0  1  0  0  0
    5.3522    1.4038    5.4578 C   0  0  0  0  0  0
    4.5869    1.8040    6.7292 C   0  0  0  0  0  0
    3.0975    2.0181    6.4248 C   0  0  0  0  0  0
    2.5060    0.7686    5.7550 C   0  0  0  0  0  0
   -4.0302    0.3654    0.0376 F   0  0  0  0  0  0
   -3.1520   -2.1583   -0.5557 F   0  0  0  0  0  0
    0.1778   -5.5525   -0.3201 F   0  0  0  0  0  0
   -1.5644   -6.4620   -5.3812 I   0  0  0  0  0  0
    4.7475    0.2058    4.8345 N   0  3  0  0  0  0
   -1.9541   -3.4570   -4.6367 H   0  0  0  0  0  0
   -0.3735   -6.8641   -2.5258 H   0  0  0  0  0  0
   -1.5196   -2.0267   -2.6749 H   0  0  0  0  0  0
    0.3099   -3.2120    0.2656 H   0  0  0  0  0  0
   -2.1739    2.0263    0.8840 H   0  0  0  0  0  0
    0.2171    1.4763    1.1579 H   0  0  0  0  0  0
    0.7582    0.0601    3.4718 H   0  0  0  0  0  0
    0.8175   -1.7184    3.1284 H   0  0  0  0  0  0
    3.3373   -2.2207    2.1036 H   0  0  0  0  0  0
    4.1937   -0.6227    2.0724 H   0  0  0  0  0  0
    2.5543   -2.7192    4.2590 H   0  0  0  0  0  0
    3.2606    1.2174    3.8029 H   0  0  0  0  0  0
    5.3477    2.2238    4.7383 H   0  0  0  0  0  0
    6.3953    1.1933    5.6941 H   0  0  0  0  0  0
    4.6984    1.0264    7.4860 H   0  0  0  0  0  0
    5.0158    2.7125    7.1529 H   0  0  0  0  0  0
    2.5545    2.2464    7.3423 H   0  0  0  0  0  0
    2.9758    2.8805    5.7681 H   0  0  0  0  0  0
    1.4639    0.9583    5.4984 H   0  0  0  0  0  0
    2.4999   -0.0516    6.4740 H   0  0  0  0  0  0
    4.8296   -0.5708    5.4753 H   0  0  0  0  0  0
    5.2582   -0.0154    3.9917 H   0  0  0  0  0  0
  1  2  2  0  0  0
  1  6  1  0  0  0
  1 31  1  0  0  0
  2  3  1  0  0  0
  2 29  1  0  0  0
  3  4  2  0  0  0
  3 32  1  0  0  0
  4  5  1  0  0  0
  4 28  1  0  0  0
  5  6  2  0  0  0
  5  7  1  0  0  0
  6 33  1  0  0  0
  7  8  1  0  0  0
  7 34  1  0  0  0
  8  9  2  0  0  0
  8 13  1  0  0  0
  9 10  1  0  0  0
  9 27  1  0  0  0
 10 11  2  0  0  0
 10 26  1  0  0  0
 11 12  1  0  0  0
 11 35  1  0  0  0
 12 13  2  0  0  0
 12 36  1  0  0  0
 13 14  1  0  0  0
 14 15  2  0  0  0
 14 16  1  0  0  0
 16 17  1  0  0  0
 16 19  1  0  0  0
 17 18  1  0  0  0
 17 37  1  0  0  0
 17 38  1  0  0  0
 18 19  1  0  0  0
 18 20  1  0  0  0
 18 21  1  0  0  0
 19 39  1  0  0  0
 19 40  1  0  0  0
 20 41  1  0  0  0
 21 25  1  0  0  0
 21 42  1  0  0  0
 21 30  1  0  0  0
 22 23  1  0  0  0
 22 43  1  0  0  0
 22 44  1  0  0  0
 22 30  1  0  0  0
 23 24  1  0  0  0
 23 45  1  0  0  0
 23 46  1  0  0  0
 24 25  1  0  0  0
 24 47  1  0  0  0
 24 48  1  0  0  0
 25 49  1  0  0  0
 25 50  1  0  0  0
 30 51  1  0  0  0
 30 52  1  0  0  0
M  CHG  1  30   1
M  END
> <s_m_entry_id>
40

> <i_f3d_flags>
0

> <r_epik_Ionization_Penalty>
  0.0039

> <r_epik_State_Penalty>
  0.0028

> <i_epik_Tot_Q>
1

> <s_pdb_PDB_TITLE>
Cobimetinib

> <s_m_Source_Path>
/media/4tb_disk1/SijieChen/TKI/pharmacophore_hypothesis-2/ligprep57_mae/active_less_than_50

> <s_m_Source_File>
Cobimetinib.mae

> <i_m_Source_File_Index>
1

$$$$
Cimetidine
                    3D
 Structure written by MMmdl.
 33 33  0  0  1  0            999 V2000
    2.2939   -0.9199   -3.4400 S   0  0  0  0  0  0
   -0.2868   -4.7361   -2.5329 N   0  0  0  0  0  0
    0.3434   -0.1577   -0.9926 N   0  0  0  0  0  0
   -0.1377   -3.0389   -3.9601 N   0  0  0  0  0  0
   -1.9110    0.4698   -0.4353 N   0  0  0  0  0  0
   -0.0892    1.6881    0.3698 N   0  0  0  0  0  0
   -2.7769   -1.4458   -1.7653 N   0  0  0  0  0  0
    1.1432   -3.3875   -3.5211 C   0  0  0  0  0  0
    2.3576   -2.6467   -3.9992 C   0  0  0  0  0  0
    2.5181   -1.1200   -1.6477 C   0  0  0  0  0  0
    1.7878   -0.0272   -0.8602 C   0  0  0  0  0  0
    1.0630   -4.4440   -2.6368 C   0  0  0  0  0  0
    2.1204   -5.1872   -1.8910 C   0  0  0  0  0  0
   -0.9402   -3.8864   -3.3290 C   0  0  0  0  0  0
   -0.6227    0.6391   -0.3691 C   0  0  0  0  0  0
   -0.8719    2.6510    1.1268 C   0  0  0  0  0  0
   -2.3687   -0.5538   -1.1508 C   0  0  0  0  0  0
    2.4050   -2.6589   -5.0882 H   0  0  0  0  0  0
    3.2757   -3.1081   -3.6350 H   0  0  0  0  0  0
    2.1568   -2.0957   -1.3259 H   0  0  0  0  0  0
    3.5862   -1.0959   -1.4318 H   0  0  0  0  0  0
    2.1030    0.9586   -1.2046 H   0  0  0  0  0  0
    2.0527   -0.1010    0.1953 H   0  0  0  0  0  0
   -0.7028   -5.4582   -1.9625 H   0  0  0  0  0  0
    0.0633   -0.9255   -1.5877 H   0  0  0  0  0  0
    2.6457   -4.5255   -1.2026 H   0  0  0  0  0  0
    2.8534   -5.6087   -2.5787 H   0  0  0  0  0  0
    1.6940   -6.0060   -1.3107 H   0  0  0  0  0  0
   -2.0141   -3.8859   -3.4449 H   0  0  0  0  0  0
   -0.2156    3.4006    1.5688 H   0  0  0  0  0  0
   -1.4173    2.1557    1.9307 H   0  0  0  0  0  0
   -1.5881    3.1609    0.4815 H   0  0  0  0  0  0
    0.9084    1.8341    0.4226 H   0  0  0  0  0  0
  1  9  1  0  0  0
  1 10  1  0  0  0
  2 12  1  0  0  0
  2 24  1  0  0  0
  2 14  1  0  0  0
  3 11  1  0  0  0
  3 15  1  0  0  0
  3 25  1  0  0  0
  4 14  2  0  0  0
  4  8  1  0  0  0
  5 15  2  0  0  0
  5 17  1  0  0  0
  6 15  1  0  0  0
  6 16  1  0  0  0
  6 33  1  0  0  0
  7 17  3  0  0  0
  8  9  1  0  0  0
  8 12  2  0  0  0
  9 18  1  0  0  0
  9 19  1  0  0  0
 10 11  1  0  0  0
 10 20  1  0  0  0
 10 21  1  0  0  0
 11 22  1  0  0  0
 11 23  1  0  0  0
 12 13  1  0  0  0
 13 26  1  0  0  0
 13 27  1  0  0  0
 13 28  1  0  0  0
 14 29  1  0  0  0
 16 30  1  0  0  0
 16 31  1  0  0  0
 16 32  1  0  0  0
M  END
> <s_m_entry_id>
41

> <i_f3d_flags>
0

> <r_lp_tautomer_probability>
0.499999999999999

> <r_epik_Ionization_Penalty>
  0.2918

> <r_epik_State_Penalty>
  0.5243

> <i_epik_Tot_Q>
0

> <s_pdb_PDB_TITLE>
cimetidine

> <s_m_Source_Path>
/media/4tb_disk1/SijieChen/TKI/pharmacophore_hypothesis-2/ligprep57_mae/active_less_than_50

> <s_m_Source_File>
Cimetidine.mae

> <i_m_Source_File_Index>
1

$$$$
Ceritinib
                    3D
 Structure written by MMmdl.
 75 78  0  0  1  0            999 V2000
   -1.9221   -1.8697   -1.0764 C   0  0  0  0  0  0
   -1.7287   -0.4349   -0.6143 C   0  0  0  0  0  0
   -0.4451    0.1356   -0.7260 C   0  0  0  0  0  0
   -0.1995    1.4638   -0.3207 C   0  0  0  0  0  0
   -1.2454    2.2402    0.2242 C   0  0  0  0  0  0
   -2.5360    1.6649    0.3295 C   0  0  0  0  0  0
   -2.7921    0.3365   -0.0795 C   0  0  0  0  0  0
   -4.2099   -0.2223    0.0704 C   0  0  0  0  0  0
   -4.6895   -0.2203    1.5368 C   0  0  0  0  0  0
   -6.1157   -0.7850    1.6516 C   0  0  0  0  0  0
   -6.6405   -0.0510   -0.6434 C   0  0  0  0  0  0
   -5.2260    0.5300   -0.8120 C   0  0  0  0  0  0
   -0.9361    3.5308    0.6136 O   0  0  0  0  0  0
   -1.9219    4.3572    1.2272 C   0  0  0  0  0  0
   -1.4199    5.8010    1.1087 C   0  0  0  0  0  0
   -2.1172    3.9583    2.7005 C   0  0  0  0  0  0
    1.0845    2.0184   -0.4198 N   0  0  0  0  0  0
    2.0600    1.9877   -1.3990 C   0  0  0  0  0  0
    1.8227    1.2861   -2.5117 N   0  0  0  0  0  0
    2.7838    1.2972   -3.4593 C   0  0  0  0  0  0
    3.9917    2.0027   -3.2868 C   0  0  0  0  0  0
    4.1491    2.6876   -2.0547 C   0  0  0  0  0  0
    3.1606    2.6956   -1.1331 N   0  0  0  0  0  0
    5.2814    3.4448   -1.7287 N   0  0  0  0  0  0
    6.6263    3.0404   -1.7562 C   0  0  0  0  0  0
    6.9675    1.6702   -1.8558 C   0  0  0  0  0  0
    8.3133    1.2588   -1.8457 C   0  0  0  0  0  0
    9.3397    2.2111   -1.7208 C   0  0  0  0  0  0
    9.0191    3.5756   -1.6060 C   0  0  0  0  0  0
    7.6708    3.9939   -1.6294 C   0  0  0  0  0  0
    7.3289    5.7556   -1.4445 S   0  0  0  0  0  0
    8.6105    6.4752   -1.5167 O   0  0  0  0  0  0
    6.2531    6.1295   -2.3760 O   0  0  0  0  0  0
    6.6897    5.9260    0.2842 C   0  0  0  0  0  0
    6.2268    7.3687    0.5244 C   0  0  0  0  0  0
    7.7558    5.4951    1.3020 C   0  0  0  0  0  0
    5.1588    2.0505   -4.5623 Cl  0  0  0  0  0  0
   -7.0475   -0.0380    0.7787 N   0  3  0  0  0  0
   -2.2421   -2.4999   -0.2464 H   0  0  0  0  0  0
   -0.9971   -2.2897   -1.4727 H   0  0  0  0  0  0
   -2.6717   -1.9199   -1.8666 H   0  0  0  0  0  0
    0.3648   -0.4599   -1.1214 H   0  0  0  0  0  0
   -3.3581    2.2334    0.7323 H   0  0  0  0  0  0
   -4.2270   -1.2606   -0.2542 H   0  0  0  0  0  0
   -4.0097   -0.8113    2.1517 H   0  0  0  0  0  0
   -4.6747    0.7907    1.9448 H   0  0  0  0  0  0
   -6.1305   -1.8397    1.3736 H   0  0  0  0  0  0
   -6.4650   -0.7224    2.6823 H   0  0  0  0  0  0
   -7.3588    0.5271   -1.2251 H   0  0  0  0  0  0
   -6.6775   -1.0749   -1.0181 H   0  0  0  0  0  0
   -5.2416    1.5902   -0.5565 H   0  0  0  0  0  0
   -4.9267    0.4692   -1.8590 H   0  0  0  0  0  0
   -2.8672    4.3057    0.6870 H   0  0  0  0  0  0
   -2.1292    6.5020    1.5494 H   0  0  0  0  0  0
   -1.2838    6.0814    0.0639 H   0  0  0  0  0  0
   -0.4628    5.9305    1.6150 H   0  0  0  0  0  0
   -2.8436    4.6095    3.1871 H   0  0  0  0  0  0
   -1.1807    4.0344    3.2537 H   0  0  0  0  0  0
   -2.4765    2.9354    2.8047 H   0  0  0  0  0  0
    1.2677    2.7118    0.2909 H   0  0  0  0  0  0
    2.5798    0.7513   -4.3686 H   0  0  0  0  0  0
    5.0994    4.2537   -1.1528 H   0  0  0  0  0  0
    6.1998    0.9147   -1.9325 H   0  0  0  0  0  0
    8.5572    0.2098   -1.9257 H   0  0  0  0  0  0
   10.3724    1.8952   -1.7066 H   0  0  0  0  0  0
    9.8183    4.2934   -1.4995 H   0  0  0  0  0  0
    5.8269    5.2669    0.3762 H   0  0  0  0  0  0
    5.8150    7.4879    1.5268 H   0  0  0  0  0  0
    5.4519    7.6564   -0.1864 H   0  0  0  0  0  0
    7.0539    8.0711    0.4170 H   0  0  0  0  0  0
    7.3822    5.5885    2.3219 H   0  0  0  0  0  0
    8.6545    6.1069    1.2205 H   0  0  0  0  0  0
    8.0464    4.4549    1.1554 H   0  0  0  0  0  0
   -7.9696   -0.4425    0.8600 H   0  0  0  0  0  0
   -7.0838    0.9210    1.0937 H   0  0  0  0  0  0
  1  2  1  0  0  0
  1 39  1  0  0  0
  1 40  1  0  0  0
  1 41  1  0  0  0
  2  3  1  0  0  0
  2  7  2  0  0  0
  3  4  2  0  0  0
  3 42  1  0  0  0
  4  5  1  0  0  0
  4 17  1  0  0  0
  5  6  2  0  0  0
  5 13  1  0  0  0
  6  7  1  0  0  0
  6 43  1  0  0  0
  7  8  1  0  0  0
  8  9  1  0  0  0
  8 12  1  0  0  0
  8 44  1  0  0  0
  9 10  1  0  0  0
  9 45  1  0  0  0
  9 46  1  0  0  0
 10 47  1  0  0  0
 10 48  1  0  0  0
 10 38  1  0  0  0
 11 12  1  0  0  0
 11 49  1  0  0  0
 11 50  1  0  0  0
 11 38  1  0  0  0
 12 51  1  0  0  0
 12 52  1  0  0  0
 13 14  1  0  0  0
 14 15  1  0  0  0
 14 16  1  0  0  0
 14 53  1  0  0  0
 15 54  1  0  0  0
 15 55  1  0  0  0
 15 56  1  0  0  0
 16 57  1  0  0  0
 16 58  1  0  0  0
 16 59  1  0  0  0
 17 18  1  0  0  0
 17 60  1  0  0  0
 18 19  1  0  0  0
 18 23  2  0  0  0
 19 20  2  0  0  0
 20 21  1  0  0  0
 20 61  1  0  0  0
 21 22  2  0  0  0
 21 37  1  0  0  0
 22 23  1  0  0  0
 22 24  1  0  0  0
 24 25  1  0  0  0
 24 62  1  0  0  0
 25 26  1  0  0  0
 25 30  2  0  0  0
 26 27  2  0  0  0
 26 63  1  0  0  0
 27 28  1  0  0  0
 27 64  1  0  0  0
 28 29  2  0  0  0
 28 65  1  0  0  0
 29 30  1  0  0  0
 29 66  1  0  0  0
 30 31  1  0  0  0
 31 32  2  0  0  0
 31 33  2  0  0  0
 31 34  1  0  0  0
 34 35  1  0  0  0
 34 36  1  0  0  0
 34 67  1  0  0  0
 35 68  1  0  0  0
 35 69  1  0  0  0
 35 70  1  0  0  0
 36 71  1  0  0  0
 36 72  1  0  0  0
 36 73  1  0  0  0
 38 74  1  0  0  0
 38 75  1  0  0  0
M  CHG  1  38   1
M  END
> <s_m_entry_id>
42

> <i_f3d_flags>
0

> <r_lp_tautomer_probability>
1

> <r_epik_Ionization_Penalty>
  0.0009

> <r_epik_State_Penalty>
  0.0000

> <i_epik_Tot_Q>
1

> <s_pdb_PDB_TITLE>
Ceritinib

> <s_m_Source_Path>
/media/4tb_disk1/SijieChen/TKI/pharmacophore_hypothesis-2/ligprep57_mae/active_less_than_50

> <s_m_Source_File>
Ceritinib.mae

> <i_m_Source_File_Index>
1

$$$$
Capmatinib
                    3D
 Structure written by MMmdl.
 48 52  0  0  1  0            999 V2000
   -5.6773    1.4064   -1.9930 C   0  0  0  0  0  0
   -4.2791    1.2158   -1.6401 N   0  0  0  0  0  0
   -3.8514    0.4164   -0.6509 C   0  0  0  0  0  0
   -4.6084   -0.2624    0.0441 O   0  0  0  0  0  0
   -2.3604    0.3257   -0.4749 C   0  0  0  0  0  0
   -1.7801   -0.9090   -0.1123 C   0  0  0  0  0  0
   -0.3897   -1.0223    0.0789 C   0  0  0  0  0  0
    0.4599    0.0955   -0.0739 C   0  0  0  0  0  0
   -0.1296    1.3318   -0.4285 C   0  0  0  0  0  0
   -1.5190    1.4553   -0.6206 C   0  0  0  0  0  0
   -2.0261    2.6727   -0.9353 F   0  0  0  0  0  0
    1.9201   -0.0274    0.1245 C   0  0  0  0  0  0
    2.6366   -1.1946   -0.2638 C   0  0  0  0  0  0
    3.9501   -1.3312   -0.1144 N   0  0  0  0  0  0
    4.5874   -0.2806    0.4291 C   0  0  0  0  0  0
    5.8807   -0.1064    0.6918 N   0  0  0  0  0  0
    5.9862    1.1675    1.2400 C   0  0  0  0  0  0
    4.7643    1.7815    1.3201 C   0  0  0  0  0  0
    3.8530    0.8677    0.8109 N   0  0  0  0  0  0
    2.5072    1.0313    0.6874 N   0  0  0  0  0  0
    4.3963    3.1416    1.8298 C   0  0  0  0  0  0
    3.7969    4.0254    0.7496 C   0  0  0  0  0  0
    4.6190    4.5786   -0.2517 C   0  0  0  0  0  0
    4.0580    5.3732   -1.2702 C   0  0  0  0  0  0
    2.6709    5.6285   -1.3160 C   0  0  0  0  0  0
    1.8512    5.0674   -0.2981 C   0  0  0  0  0  0
    2.4112    4.2809    0.7282 C   0  0  0  0  0  0
    0.4611    5.3022   -0.3306 C   0  0  0  0  0  0
   -0.0691    6.0872   -1.3703 C   0  0  0  0  0  0
    0.8175    6.6057   -2.3327 C   0  0  0  0  0  0
    2.1492    6.3848   -2.3094 N   0  0  0  0  0  0
   -5.7583    2.1036   -2.8267 H   0  0  0  0  0  0
   -6.2379    1.8145   -1.1511 H   0  0  0  0  0  0
   -6.1348    0.4625   -2.2919 H   0  0  0  0  0  0
   -3.5919    1.7254   -2.1767 H   0  0  0  0  0  0
   -2.3997   -1.7846    0.0187 H   0  0  0  0  0  0
    0.0201   -1.9821    0.3573 H   0  0  0  0  0  0
    0.4878    2.2089   -0.5572 H   0  0  0  0  0  0
    2.1193   -2.0311   -0.7220 H   0  0  0  0  0  0
    6.9507    1.5518    1.5376 H   0  0  0  0  0  0
    3.6948    3.0455    2.6594 H   0  0  0  0  0  0
    5.2792    3.6368    2.2355 H   0  0  0  0  0  0
    5.6824    4.3880   -0.2453 H   0  0  0  0  0  0
    4.7029    5.7866   -2.0319 H   0  0  0  0  0  0
    1.7739    3.8557    1.4903 H   0  0  0  0  0  0
   -0.1904    4.8867    0.4244 H   0  0  0  0  0  0
   -1.1289    6.2875   -1.4286 H   0  0  0  0  0  0
    0.4474    7.2136   -3.1450 H   0  0  0  0  0  0
  1  2  1  0  0  0
  1 32  1  0  0  0
  1 33  1  0  0  0
  1 34  1  0  0  0
  2  3  1  0  0  0
  2 35  1  0  0  0
  3  4  2  0  0  0
  3  5  1  0  0  0
  5  6  1  0  0  0
  5 10  2  0  0  0
  6  7  2  0  0  0
  6 36  1  0  0  0
  7  8  1  0  0  0
  7 37  1  0  0  0
  8  9  2  0  0  0
  8 12  1  0  0  0
  9 10  1  0  0  0
  9 38  1  0  0  0
 10 11  1  0  0  0
 12 13  1  0  0  0
 12 20  2  0  0  0
 13 14  2  0  0  0
 13 39  1  0  0  0
 14 15  1  0  0  0
 15 16  2  0  0  0
 15 19  1  0  0  0
 16 17  1  0  0  0
 17 18  2  0  0  0
 17 40  1  0  0  0
 18 19  1  0  0  0
 18 21  1  0  0  0
 19 20  1  0  0  0
 21 22  1  0  0  0
 21 41  1  0  0  0
 21 42  1  0  0  0
 22 23  1  0  0  0
 22 27  2  0  0  0
 23 24  2  0  0  0
 23 43  1  0  0  0
 24 25  1  0  0  0
 24 44  1  0  0  0
 25 26  1  0  0  0
 25 31  2  0  0  0
 26 27  1  0  0  0
 26 28  2  0  0  0
 27 45  1  0  0  0
 28 29  1  0  0  0
 28 46  1  0  0  0
 29 30  2  0  0  0
 29 47  1  0  0  0
 30 31  1  0  0  0
 30 48  1  0  0  0
M  END
> <s_m_entry_id>
43

> <i_f3d_flags>
0

> <r_epik_Ionization_Penalty>
  0.0075

> <r_epik_State_Penalty>
  0.0056

> <i_epik_Tot_Q>
0

> <s_pdb_PDB_TITLE>
Capmatinib

> <s_m_Source_Path>
/media/4tb_disk1/SijieChen/TKI/pharmacophore_hypothesis-2/ligprep57_mae/active_less_than_50

> <s_m_Source_File>
Capmatinib.mae

> <i_m_Source_File_Index>
1

$$$$
Cabozantinib
                    3D
 Structure written by MMmdl.
 62 66  0  0  1  0            999 V2000
    1.3315    4.7431   -0.2346 C   0  0  0  0  0  0
   -0.0865    4.7477   -0.1523 O   0  0  0  0  0  0
   -0.7431    3.5389   -0.0443 C   0  0  0  0  0  0
   -0.0755    2.2894    0.0178 C   0  0  0  0  0  0
   -0.8053    1.0875    0.1205 C   0  0  0  0  0  0
   -0.1555   -0.1696    0.1756 C   0  0  0  0  0  0
   -0.9376   -1.3408    0.2827 C   0  0  0  0  0  0
   -2.3411   -1.2307    0.3243 C   0  0  0  0  0  0
   -2.9218   -0.0131    0.2657 N   0  3  0  0  0  0
   -2.2193    1.1378    0.1666 C   0  0  0  0  0  0
   -2.8902    2.3731    0.1107 C   0  0  0  0  0  0
   -2.1564    3.5816    0.0043 C   0  0  0  0  0  0
   -2.7451    4.8279   -0.0580 O   0  0  0  0  0  0
   -4.1621    4.9101   -0.0095 C   0  0  0  0  0  0
    1.2132   -0.2553    0.1482 O   0  0  0  0  0  0
    1.7799   -0.7938   -0.9771 C   0  0  0  0  0  0
    2.4403   -2.0350   -0.8974 C   0  0  0  0  0  0
    3.0374   -2.5936   -2.0436 C   0  0  0  0  0  0
    2.9777   -1.9221   -3.2825 C   0  0  0  0  0  0
    2.3328   -0.6634   -3.3547 C   0  0  0  0  0  0
    1.7353   -0.1061   -2.2078 C   0  0  0  0  0  0
    3.6202   -2.5431   -4.3875 N   0  0  0  0  0  0
    3.4036   -2.3604   -5.7058 C   0  0  0  0  0  0
    2.5468   -1.6104   -6.1732 O   0  0  0  0  0  0
    4.2872   -3.1846   -6.5953 C   0  0  0  0  0  0
    3.7514   -3.7266   -7.9065 C   0  0  0  0  0  0
    3.9929   -4.6646   -6.7491 C   0  0  0  0  0  0
    5.7081   -2.7065   -6.5342 C   0  0  0  0  0  0
    6.5928   -3.3944   -6.0250 O   0  0  0  0  0  0
    5.9129   -1.5002   -7.1008 N   0  0  0  0  0  0
    7.1195   -0.7555   -7.1927 C   0  0  0  0  0  0
    7.2124    0.1995   -8.2270 C   0  0  0  0  0  0
    8.3714    0.9865   -8.3708 C   0  0  0  0  0  0
    9.4435    0.8323   -7.4719 C   0  0  0  0  0  0
    9.3530   -0.1055   -6.4260 C   0  0  0  0  0  0
    8.1949   -0.8941   -6.2811 C   0  0  0  0  0  0
   10.5572    1.5901   -7.6088 F   0  0  0  0  0  0
    1.6892    5.7685   -0.3270 H   0  0  0  0  0  0
    1.6786    4.1933   -1.1107 H   0  0  0  0  0  0
    1.7825    4.3174    0.6628 H   0  0  0  0  0  0
    1.0019    2.2363   -0.0161 H   0  0  0  0  0  0
   -0.4661   -2.3116    0.3327 H   0  0  0  0  0  0
   -3.0120   -2.0736    0.4042 H   0  0  0  0  0  0
   -3.9689    2.3748    0.1501 H   0  0  0  0  0  0
   -4.4631    5.9560   -0.0697 H   0  0  0  0  0  0
   -4.5534    4.5086    0.9262 H   0  0  0  0  0  0
   -4.6215    4.3868   -0.8491 H   0  0  0  0  0  0
    2.4897   -2.5607    0.0448 H   0  0  0  0  0  0
    3.5408   -3.5467   -1.9682 H   0  0  0  0  0  0
    2.2965   -0.0987   -4.2733 H   0  0  0  0  0  0
    1.2482    0.8554   -2.2749 H   0  0  0  0  0  0
    4.2939   -3.2572   -4.1497 H   0  0  0  0  0  0
    2.7194   -3.5009   -8.1686 H   0  0  0  0  0  0
    4.4368   -3.7732   -8.7510 H   0  0  0  0  0  0
    4.8368   -5.3486   -6.8182 H   0  0  0  0  0  0
    3.1246   -5.0626   -6.2268 H   0  0  0  0  0  0
    5.1161   -1.0935   -7.5697 H   0  0  0  0  0  0
    6.3944    0.3294   -8.9209 H   0  0  0  0  0  0
    8.4364    1.7102   -9.1700 H   0  0  0  0  0  0
   10.1706   -0.2173   -5.7293 H   0  0  0  0  0  0
    8.1486   -1.5869   -5.4552 H   0  0  0  0  0  0
   -3.9400    0.0404    0.2984 H   0  0  0  0  0  0
  1  2  1  0  0  0
  1 38  1  0  0  0
  1 39  1  0  0  0
  1 40  1  0  0  0
  2  3  1  0  0  0
  3  4  1  0  0  0
  3 12  2  0  0  0
  4  5  2  0  0  0
  4 41  1  0  0  0
  5  6  1  0  0  0
  5 10  1  0  0  0
  6  7  2  0  0  0
  6 15  1  0  0  0
  7  8  1  0  0  0
  7 42  1  0  0  0
  8  9  2  0  0  0
  8 43  1  0  0  0
  9 10  1  0  0  0
  9 62  1  0  0  0
 10 11  2  0  0  0
 11 12  1  0  0  0
 11 44  1  0  0  0
 12 13  1  0  0  0
 13 14  1  0  0  0
 14 45  1  0  0  0
 14 46  1  0  0  0
 14 47  1  0  0  0
 15 16  1  0  0  0
 16 17  1  0  0  0
 16 21  2  0  0  0
 17 18  2  0  0  0
 17 48  1  0  0  0
 18 19  1  0  0  0
 18 49  1  0  0  0
 19 20  2  0  0  0
 19 22  1  0  0  0
 20 21  1  0  0  0
 20 50  1  0  0  0
 21 51  1  0  0  0
 22 23  1  0  0  0
 22 52  1  0  0  0
 23 24  2  0  0  0
 23 25  1  0  0  0
 25 26  1  0  0  0
 25 27  1  0  0  0
 25 28  1  0  0  0
 26 27  1  0  0  0
 26 53  1  0  0  0
 26 54  1  0  0  0
 27 55  1  0  0  0
 27 56  1  0  0  0
 28 29  2  0  0  0
 28 30  1  0  0  0
 30 31  1  0  0  0
 30 57  1  0  0  0
 31 32  1  0  0  0
 31 36  2  0  0  0
 32 33  2  0  0  0
 32 58  1  0  0  0
 33 34  1  0  0  0
 33 59  1  0  0  0
 34 35  2  0  0  0
 34 37  1  0  0  0
 35 36  1  0  0  0
 35 60  1  0  0  0
 36 61  1  0  0  0
M  CHG  1   9   1
M  END
> <s_m_entry_id>
44

> <i_f3d_flags>
0

> <r_lp_tautomer_probability>
1

> <r_epik_Ionization_Penalty>
  0.0524

> <r_epik_State_Penalty>
  0.0450

> <i_epik_Tot_Q>
1

> <s_pdb_PDB_TITLE>
Cabozantinib

> <s_m_Source_Path>
/media/4tb_disk1/SijieChen/TKI/pharmacophore_hypothesis-2/ligprep57_mae/active_less_than_50

> <s_m_Source_File>
Cabozantinib.mae

> <i_m_Source_File_Index>
1

$$$$
Brigatinib
                    3D
 Structure written by MMmdl.
 80 84  0  0  1  0            999 V2000
  -10.7188   -0.6260   -2.6860 C   0  0  0  0  0  0
   -9.7589   -1.8063   -0.7778 C   0  0  0  0  0  0
   -8.3271   -1.2342   -0.8402 C   0  0  0  0  0  0
   -9.2378    1.0022   -0.5244 C   0  0  0  0  0  0
  -10.6570    0.3977   -0.4735 C   0  0  0  0  0  0
   -6.8714    0.5876    0.1293 C   0  0  0  0  0  0
   -6.0187   -0.2434    1.1098 C   0  0  0  0  0  0
   -4.6410    0.4052    1.3271 C   0  0  0  0  0  0
   -3.9681    0.6397    0.0496 N   0  0  0  0  0  0
   -4.7217    1.4215   -0.9298 C   0  0  0  0  0  0
   -6.0972    0.7877   -1.1938 C   0  0  0  0  0  0
   -2.5726    0.8290    0.1232 C   0  0  0  0  0  0
   -1.7655   -0.1855    0.6818 C   0  0  0  0  0  0
   -0.3700   -0.0341    0.7520 C   0  0  0  0  0  0
    0.2453    1.1319    0.2597 C   0  0  0  0  0  0
   -0.5415    2.1775   -0.2805 C   0  0  0  0  0  0
   -1.9483    2.0090   -0.3500 C   0  0  0  0  0  0
    0.1091    3.3203   -0.7027 O   0  0  0  0  0  0
   -0.6675    4.4031   -1.1936 C   0  0  0  0  0  0
    1.6405    1.2314    0.3249 N   0  0  0  0  0  0
    2.5929    1.3441   -0.6694 C   0  0  0  0  0  0
    3.8645    1.3364   -0.2651 N   0  0  0  0  0  0
    4.8092    1.4261   -1.2269 C   0  0  0  0  0  0
    4.4737    1.5179   -2.5936 C   0  0  0  0  0  0
    3.0963    1.5185   -2.9105 C   0  0  0  0  0  0
    2.1657    1.4220   -1.9335 N   0  0  0  0  0  0
    2.6871    1.5803   -4.2522 N   0  0  0  0  0  0
    1.3871    1.4951   -4.7779 C   0  0  0  0  0  0
    0.3165    2.2057   -4.1878 C   0  0  0  0  0  0
   -0.9814    2.1268   -4.7229 C   0  0  0  0  0  0
   -1.2190    1.3466   -5.8673 C   0  0  0  0  0  0
   -0.1578    0.6511   -6.4759 C   0  0  0  0  0  0
    1.1486    0.7193   -5.9417 C   0  0  0  0  0  0
    2.5122   -0.2014   -6.7463 P   0  0  0  0  0  0
    3.6187    0.6897   -7.1962 O   0  0  0  0  0  0
    3.0432   -1.4688   -5.5070 C   0  0  0  0  0  0
    1.7921   -1.2228   -8.1115 C   0  0  0  0  0  0
    5.7023    1.6122   -3.8059 Cl  0  0  0  0  0  0
  -10.7585   -0.8433   -1.2439 N   0  0  0  0  0  0
   -8.2390    0.0166   -0.0422 N   0  3  0  0  0  0
  -11.5267    0.0413   -2.9880 H   0  0  0  0  0  0
  -10.8564   -1.5698   -3.2141 H   0  0  0  0  0  0
   -9.7791   -0.1875   -3.0190 H   0  0  0  0  0  0
   -9.8293   -2.7215   -1.3666 H   0  0  0  0  0  0
   -9.9967   -2.0821    0.2505 H   0  0  0  0  0  0
   -7.6365   -1.9798   -0.4485 H   0  0  0  0  0  0
   -8.0372   -1.0538   -1.8752 H   0  0  0  0  0  0
   -8.9910    1.3346   -1.5329 H   0  0  0  0  0  0
   -9.2116    1.8889    0.1098 H   0  0  0  0  0  0
  -10.9240    0.1835    0.5623 H   0  0  0  0  0  0
  -11.3912    1.1172   -0.8382 H   0  0  0  0  0  0
   -6.9962    1.5687    0.5907 H   0  0  0  0  0  0
   -6.5320   -0.3415    2.0670 H   0  0  0  0  0  0
   -5.8716   -1.2547    0.7306 H   0  0  0  0  0  0
   -4.7563    1.3619    1.8382 H   0  0  0  0  0  0
   -4.0456   -0.2280    1.9845 H   0  0  0  0  0  0
   -4.8467    2.4398   -0.5589 H   0  0  0  0  0  0
   -4.1679    1.4823   -1.8677 H   0  0  0  0  0  0
   -5.9439   -0.1669   -1.6975 H   0  0  0  0  0  0
   -6.6601    1.4186   -1.8814 H   0  0  0  0  0  0
   -2.2097   -1.1007    1.0449 H   0  0  0  0  0  0
    0.2299   -0.8287    1.1718 H   0  0  0  0  0  0
   -2.5620    2.7960   -0.7578 H   0  0  0  0  0  0
   -0.0040    5.2212   -1.4731 H   0  0  0  0  0  0
   -1.3531    4.7789   -0.4330 H   0  0  0  0  0  0
   -1.2324    4.1209   -2.0830 H   0  0  0  0  0  0
    2.0294    0.9752    1.2205 H   0  0  0  0  0  0
    5.8396    1.4182   -0.9036 H   0  0  0  0  0  0
    3.4329    1.4480   -4.9211 H   0  0  0  0  0  0
    0.4846    2.8296   -3.3240 H   0  0  0  0  0  0
   -1.7908    2.6712   -4.2596 H   0  0  0  0  0  0
   -2.2139    1.2869   -6.2833 H   0  0  0  0  0  0
   -0.3659    0.0664   -7.3580 H   0  0  0  0  0  0
    2.3184   -1.5340   -4.6954 H   0  0  0  0  0  0
    4.0110   -1.1963   -5.0862 H   0  0  0  0  0  0
    3.1309   -2.4484   -5.9764 H   0  0  0  0  0  0
    1.0149   -1.8827   -7.7260 H   0  0  0  0  0  0
    2.5705   -1.8343   -8.5680 H   0  0  0  0  0  0
    1.3639   -0.5800   -8.8808 H   0  0  0  0  0  0
   -8.5424   -0.2289    0.8894 H   0  0  0  0  0  0
  1 41  1  0  0  0
  1 42  1  0  0  0
  1 43  1  0  0  0
  1 39  1  0  0  0
  2  3  1  0  0  0
  2 44  1  0  0  0
  2 45  1  0  0  0
  2 39  1  0  0  0
  3 46  1  0  0  0
  3 47  1  0  0  0
  3 40  1  0  0  0
  4  5  1  0  0  0
  4 48  1  0  0  0
  4 49  1  0  0  0
  4 40  1  0  0  0
  5 50  1  0  0  0
  5 51  1  0  0  0
  5 39  1  0  0  0
  6  7  1  0  0  0
  6 11  1  0  0  0
  6 52  1  0  0  0
  6 40  1  0  0  0
  7  8  1  0  0  0
  7 53  1  0  0  0
  7 54  1  0  0  0
  8  9  1  0  0  0
  8 55  1  0  0  0
  8 56  1  0  0  0
  9 10  1  0  0  0
  9 12  1  0  0  0
 10 11  1  0  0  0
 10 57  1  0  0  0
 10 58  1  0  0  0
 11 59  1  0  0  0
 11 60  1  0  0  0
 12 13  1  0  0  0
 12 17  2  0  0  0
 13 14  2  0  0  0
 13 61  1  0  0  0
 14 15  1  0  0  0
 14 62  1  0  0  0
 15 16  2  0  0  0
 15 20  1  0  0  0
 16 17  1  0  0  0
 16 18  1  0  0  0
 17 63  1  0  0  0
 18 19  1  0  0  0
 19 64  1  0  0  0
 19 65  1  0  0  0
 19 66  1  0  0  0
 20 21  1  0  0  0
 20 67  1  0  0  0
 21 22  1  0  0  0
 21 26  2  0  0  0
 22 23  2  0  0  0
 23 24  1  0  0  0
 23 68  1  0  0  0
 24 25  2  0  0  0
 24 38  1  0  0  0
 25 26  1  0  0  0
 25 27  1  0  0  0
 27 28  1  0  0  0
 27 69  1  0  0  0
 28 29  1  0  0  0
 28 33  2  0  0  0
 29 30  2  0  0  0
 29 70  1  0  0  0
 30 31  1  0  0  0
 30 71  1  0  0  0
 31 32  2  0  0  0
 31 72  1  0  0  0
 32 33  1  0  0  0
 32 73  1  0  0  0
 33 34  1  0  0  0
 34 35  2  0  0  0
 34 36  1  0  0  0
 34 37  1  0  0  0
 36 74  1  0  0  0
 36 75  1  0  0  0
 36 76  1  0  0  0
 37 77  1  0  0  0
 37 78  1  0  0  0
 37 79  1  0  0  0
 40 80  1  0  0  0
M  CHG  1  40   1
M  END
> <s_m_entry_id>
45

> <i_f3d_flags>
0

> <r_lp_tautomer_probability>
0.999999624730965

> <r_epik_Ionization_Penalty>
  0.0088

> <r_epik_State_Penalty>
  0.0135

> <i_epik_Tot_Q>
1

> <s_pdb_PDB_TITLE>
Brigatinib

> <s_m_Source_Path>
/media/4tb_disk1/SijieChen/TKI/pharmacophore_hypothesis-2/ligprep57_mae/active_less_than_50

> <s_m_Source_File>
Brigatinib.mae

> <i_m_Source_File_Index>
1

$$$$
Bosutinib
                    3D
 Structure written by MMmdl.
 66 69  0  0  1  0            999 V2000
   -5.0770   -2.8342    3.8471 C   0  0  0  0  0  0
   -3.1917   -1.2890    4.2128 C   0  0  0  0  0  0
   -1.7640   -0.9307    3.7485 C   0  0  0  0  0  0
   -2.2536   -1.6963    1.5393 C   0  0  0  0  0  0
   -3.6908   -2.0669    1.9595 C   0  0  0  0  0  0
   -2.3214    0.7312    2.0529 C   0  0  0  0  0  0
   -2.0426    1.2561    0.6282 C   0  0  0  0  0  0
   -0.5556    1.4992    0.3246 C   0  0  0  0  0  0
    0.0972    0.2456    0.1790 O   0  0  0  0  0  0
    1.4669    0.2211    0.0293 C   0  0  0  0  0  0
    2.2600    1.3786   -0.1471 C   0  0  0  0  0  0
    3.6590    1.3017   -0.3014 C   0  0  0  0  0  0
    4.2860    0.0233   -0.2892 C   0  0  0  0  0  0
    3.4903   -1.1306   -0.0881 C   0  0  0  0  0  0
    2.0858   -1.0439    0.0584 C   0  0  0  0  0  0
    1.2643   -2.1386    0.2383 O   0  0  0  0  0  0
    1.8456   -3.4342    0.2050 C   0  0  0  0  0  0
    5.7011   -0.0478   -0.4653 C   0  0  0  0  0  0
    6.4191    1.1699   -0.5882 C   0  0  0  0  0  0
    5.6995    2.3783   -0.5774 C   0  0  0  0  0  0
    4.3620    2.4449   -0.4490 N   0  0  0  0  0  0
    7.8680    1.2193   -0.7477 C   0  0  0  0  0  0
    9.0174    1.2576   -0.8739 N   0  0  0  0  0  0
    6.4065   -1.2672   -0.5051 N   0  0  0  0  0  0
    6.1479   -2.4141   -1.2749 C   0  0  0  0  0  0
    6.5140   -3.6528   -0.7067 C   0  0  0  0  0  0
    6.2705   -4.8751   -1.3812 C   0  0  0  0  0  0
    5.6626   -4.8353   -2.6531 C   0  0  0  0  0  0
    5.3177   -3.6049   -3.2405 C   0  0  0  0  0  0
    5.5607   -2.3925   -2.5685 C   0  0  0  0  0  0
    5.1613   -0.9264   -3.3966 Cl  0  0  0  0  0  0
    5.3426   -6.2988   -3.5131 Cl  0  0  0  0  0  0
    6.5904   -6.1146   -0.8668 O   0  0  0  0  0  0
    7.2050   -6.1751    0.4120 C   0  0  0  0  0  0
   -3.7351   -2.4031    3.4015 N   0  3  0  0  0  0
   -1.7216   -0.5788    2.3270 N   0  0  0  0  0  0
   -5.8054   -2.0301    3.7322 H   0  0  0  0  0  0
   -5.0563   -3.1305    4.8964 H   0  0  0  0  0  0
   -5.4177   -3.6913    3.2652 H   0  0  0  0  0  0
   -3.1649   -1.5887    5.2610 H   0  0  0  0  0  0
   -3.8530   -0.4235    4.1539 H   0  0  0  0  0  0
   -1.3640   -0.1097    4.3449 H   0  0  0  0  0  0
   -1.1013   -1.7811    3.9157 H   0  0  0  0  0  0
   -1.6004   -2.5579    1.6851 H   0  0  0  0  0  0
   -2.2121   -1.4726    0.4742 H   0  0  0  0  0  0
   -4.3865   -1.2564    1.7389 H   0  0  0  0  0  0
   -4.0237   -2.9289    1.3805 H   0  0  0  0  0  0
   -1.9184    1.4519    2.7657 H   0  0  0  0  0  0
   -3.3969    0.7050    2.2244 H   0  0  0  0  0  0
   -2.4812    0.6070   -0.1291 H   0  0  0  0  0  0
   -2.5636    2.2082    0.5239 H   0  0  0  0  0  0
   -0.4626    2.0656   -0.6031 H   0  0  0  0  0  0
   -0.1045    2.0865    1.1262 H   0  0  0  0  0  0
    1.8067    2.3580   -0.1703 H   0  0  0  0  0  0
    3.9628   -2.0958   -0.0368 H   0  0  0  0  0  0
    1.0607   -4.1823    0.3146 H   0  0  0  0  0  0
    2.5512   -3.5751    1.0248 H   0  0  0  0  0  0
    2.3504   -3.6230   -0.7438 H   0  0  0  0  0  0
    6.2077    3.3264   -0.6815 H   0  0  0  0  0  0
    7.2677   -1.2888    0.0223 H   0  0  0  0  0  0
    6.9711   -3.6442    0.2714 H   0  0  0  0  0  0
    4.8688   -3.5906   -4.2230 H   0  0  0  0  0  0
    7.3827   -7.2175    0.6759 H   0  0  0  0  0  0
    6.5652   -5.7451    1.1839 H   0  0  0  0  0  0
    8.1693   -5.6651    0.4149 H   0  0  0  0  0  0
   -3.1147   -3.1890    3.5348 H   0  0  0  0  0  0
  1 37  1  0  0  0
  1 38  1  0  0  0
  1 39  1  0  0  0
  1 35  1  0  0  0
  2  3  1  0  0  0
  2 40  1  0  0  0
  2 41  1  0  0  0
  2 35  1  0  0  0
  3 42  1  0  0  0
  3 43  1  0  0  0
  3 36  1  0  0  0
  4  5  1  0  0  0
  4 44  1  0  0  0
  4 45  1  0  0  0
  4 36  1  0  0  0
  5 46  1  0  0  0
  5 47  1  0  0  0
  5 35  1  0  0  0
  6  7  1  0  0  0
  6 48  1  0  0  0
  6 49  1  0  0  0
  6 36  1  0  0  0
  7  8  1  0  0  0
  7 50  1  0  0  0
  7 51  1  0  0  0
  8  9  1  0  0  0
  8 52  1  0  0  0
  8 53  1  0  0  0
  9 10  1  0  0  0
 10 11  1  0  0  0
 10 15  2  0  0  0
 11 12  2  0  0  0
 11 54  1  0  0  0
 12 13  1  0  0  0
 12 21  1  0  0  0
 13 14  2  0  0  0
 13 18  1  0  0  0
 14 15  1  0  0  0
 14 55  1  0  0  0
 15 16  1  0  0  0
 16 17  1  0  0  0
 17 56  1  0  0  0
 17 57  1  0  0  0
 17 58  1  0  0  0
 18 19  2  0  0  0
 18 24  1  0  0  0
 19 20  1  0  0  0
 19 22  1  0  0  0
 20 21  2  0  0  0
 20 59  1  0  0  0
 22 23  3  0  0  0
 24 25  1  0  0  0
 24 60  1  0  0  0
 25 26  1  0  0  0
 25 30  2  0  0  0
 26 27  2  0  0  0
 26 61  1  0  0  0
 27 28  1  0  0  0
 27 33  1  0  0  0
 28 29  2  0  0  0
 28 32  1  0  0  0
 29 30  1  0  0  0
 29 62  1  0  0  0
 30 31  1  0  0  0
 33 34  1  0  0  0
 34 63  1  0  0  0
 34 64  1  0  0  0
 34 65  1  0  0  0
 35 66  1  0  0  0
M  CHG  1  35   1
M  END
> <s_m_entry_id>
46

> <i_f3d_flags>
0

> <r_epik_Ionization_Penalty>
  0.0297

> <r_epik_State_Penalty>
  0.1132

> <i_epik_Tot_Q>
1

> <s_pdb_PDB_TITLE>
Bosutinib

> <s_m_Source_Path>
/media/4tb_disk1/SijieChen/TKI/pharmacophore_hypothesis-2/ligprep57_mae/active_less_than_50

> <s_m_Source_File>
Bosutinib.mae

> <i_m_Source_File_Index>
1

$$$$
Baricitinib
                    3D
 Structure written by MMmdl.
 43 46  0  0  1  0            999 V2000
    0.1988    2.5078    1.2749 C   0  0  0  0  0  0
   -0.2124    1.9036   -0.0728 C   0  0  0  0  0  0
   -0.0699    0.0658   -0.0638 S   0  0  0  0  0  0
   -0.6057   -0.4279    1.2146 O   0  0  0  0  0  0
   -0.6349   -0.4309   -1.3280 O   0  0  0  0  0  0
    1.5881   -0.1550   -0.0789 N   0  0  0  0  0  0
    2.2583   -0.8048   -1.1884 C   0  0  0  0  0  0
    3.3256   -1.2608   -0.1738 C   0  0  0  0  0  0
    2.2395   -1.0111    0.8918 C   0  0  0  0  0  0
    4.5783   -0.3791   -0.0866 C   0  0  0  0  0  0
    5.3055   -0.5177    1.1855 C   0  0  0  0  0  0
    5.8754   -0.6285    2.1861 N   0  0  0  0  0  0
    3.7803   -2.6203   -0.3011 N   0  0  0  0  0  0
    4.0627   -3.5110    0.7157 C   0  0  0  0  0  0
    4.5425   -4.6391    0.1171 C   0  0  0  0  0  0
    4.5411   -4.3460   -1.2753 C   0  0  0  0  0  0
    4.1034   -3.1201   -1.5180 N   0  0  0  0  0  0
    4.9867   -5.8905    0.7570 C   0  0  0  0  0  0
    5.3401   -6.0196    2.1291 C   0  0  0  0  0  0
    5.4327   -5.1648    3.2855 C   0  0  0  0  0  0
    5.8503   -5.9505    4.3296 C   0  0  0  0  0  0
    6.0269   -7.2465    3.8770 N   0  0  0  0  0  0
    5.7298   -7.3289    2.5329 C   0  0  0  0  0  0
    5.7948   -8.4363    1.7406 N   0  0  0  0  0  0
    5.4431   -8.1570    0.4830 C   0  0  0  0  0  0
    5.0571   -6.9880   -0.0369 N   0  0  0  0  0  0
    0.1233    3.5949    1.2511 H   0  0  0  0  0  0
    1.2289    2.2515    1.5238 H   0  0  0  0  0  0
   -0.4403    2.1484    2.0816 H   0  0  0  0  0  0
   -1.2504    2.1552   -0.2901 H   0  0  0  0  0  0
    0.3988    2.2934   -0.8870 H   0  0  0  0  0  0
    1.6761   -1.6263   -1.6106 H   0  0  0  0  0  0
    2.6159   -0.1149   -1.9531 H   0  0  0  0  0  0
    2.5752   -0.4826    1.7842 H   0  0  0  0  0  0
    1.6450   -1.8950    1.1328 H   0  0  0  0  0  0
    5.2752   -0.6001   -0.8958 H   0  0  0  0  0  0
    4.3157    0.6744   -0.1858 H   0  0  0  0  0  0
    3.8938   -3.2643    1.7526 H   0  0  0  0  0  0
    4.8530   -4.9670   -2.1022 H   0  0  0  0  0  0
    5.2194   -4.1074    3.3243 H   0  0  0  0  0  0
    6.0404   -5.6909    5.3608 H   0  0  0  0  0  0
    6.3369   -8.0053    4.4668 H   0  0  0  0  0  0
    5.4756   -8.9872   -0.2069 H   0  0  0  0  0  0
  1  2  1  0  0  0
  1 27  1  0  0  0
  1 28  1  0  0  0
  1 29  1  0  0  0
  2  3  1  0  0  0
  2 30  1  0  0  0
  2 31  1  0  0  0
  3  4  2  0  0  0
  3  5  2  0  0  0
  3  6  1  0  0  0
  6  7  1  0  0  0
  6  9  1  0  0  0
  7  8  1  0  0  0
  7 32  1  0  0  0
  7 33  1  0  0  0
  8  9  1  0  0  0
  8 10  1  0  0  0
  8 13  1  0  0  0
  9 34  1  0  0  0
  9 35  1  0  0  0
 10 11  1  0  0  0
 10 36  1  0  0  0
 10 37  1  0  0  0
 11 12  3  0  0  0
 13 14  1  0  0  0
 13 17  1  0  0  0
 14 15  2  0  0  0
 14 38  1  0  0  0
 15 16  1  0  0  0
 15 18  1  0  0  0
 16 17  2  0  0  0
 16 39  1  0  0  0
 18 19  1  0  0  0
 18 26  2  0  0  0
 19 20  1  0  0  0
 19 23  2  0  0  0
 20 21  2  0  0  0
 20 40  1  0  0  0
 21 22  1  0  0  0
 21 41  1  0  0  0
 22 23  1  0  0  0
 22 42  1  0  0  0
 23 24  1  0  0  0
 24 25  2  0  0  0
 25 26  1  0  0  0
 25 43  1  0  0  0
M  END
> <s_m_entry_id>
47

> <i_f3d_flags>
0

> <r_lp_tautomer_probability>
1

> <r_epik_Ionization_Penalty>
  0.0000

> <r_epik_State_Penalty>
  0.0000

> <i_epik_Tot_Q>
0

> <s_pdb_PDB_TITLE>
Baricitinib

> <s_m_Source_Path>
/media/4tb_disk1/SijieChen/TKI/pharmacophore_hypothesis-2/ligprep57_mae/active_less_than_50

> <s_m_Source_File>
Baricitinib.mae

> <i_m_Source_File_Index>
1

$$$$
Axitinib
                    3D
 Structure written by MMmdl.
 46 49  0  0  1  0            999 V2000
    0.0067    0.1793    0.5953 C   0  0  0  0  0  0
   -0.4914    1.2825    1.3192 C   0  0  0  0  0  0
   -1.8656    1.3969    1.5954 C   0  0  0  0  0  0
   -2.7546    0.4077    1.1409 C   0  0  0  0  0  0
   -2.2665   -0.6984    0.4205 C   0  0  0  0  0  0
   -0.8858   -0.8398    0.1526 C   0  0  0  0  0  0
   -0.4389   -2.0444   -0.6294 C   0  0  0  0  0  0
   -1.0063   -2.3553   -1.6768 O   0  0  0  0  0  0
    0.5549   -2.7628   -0.0857 N   0  0  0  0  0  0
    1.1221   -3.9605   -0.6851 C   0  0  0  0  0  0
    1.7431    0.1563    0.2394 S   0  0  0  0  0  0
    1.7566    1.0022   -1.3059 C   0  0  0  0  0  0
    1.8474    2.4063   -1.3359 C   0  0  0  0  0  0
    1.8499    3.0613   -2.5799 C   0  0  0  0  0  0
    1.7632    2.3557   -3.8115 C   0  0  0  0  0  0
    1.6762    0.9439   -3.7495 C   0  0  0  0  0  0
    1.6752    0.2726   -2.5094 C   0  0  0  0  0  0
    1.9248    4.3871   -2.9637 N   0  0  0  0  0  0
    1.8948    4.5703   -4.3071 N   0  0  0  0  0  0
    1.7933    3.3689   -4.8300 C   0  0  0  0  0  0
    1.7255    3.0257   -6.2562 C   0  0  0  0  0  0
    1.7994    3.9209   -7.2595 C   0  0  0  0  0  0
    1.7266    3.6073   -8.6962 C   0  0  0  0  0  0
    1.8725    4.6516   -9.6360 C   0  0  0  0  0  0
    1.8064    4.3484  -11.0097 C   0  0  0  0  0  0
    1.5966    3.0128  -11.4000 C   0  0  0  0  0  0
    1.4634    2.0377  -10.3931 C   0  0  0  0  0  0
    1.5277    2.3216   -9.0746 N   0  0  0  0  0  0
    0.1835    2.0558    1.6557 H   0  0  0  0  0  0
   -2.2380    2.2478    2.1468 H   0  0  0  0  0  0
   -3.8118    0.4965    1.3439 H   0  0  0  0  0  0
   -2.9646   -1.4496    0.0798 H   0  0  0  0  0  0
    0.9528   -2.4478    0.7874 H   0  0  0  0  0  0
    1.8941   -4.3712   -0.0348 H   0  0  0  0  0  0
    1.5752   -3.7307   -1.6502 H   0  0  0  0  0  0
    0.3568   -4.7237   -0.8315 H   0  0  0  0  0  0
    1.9115    2.9738   -0.4193 H   0  0  0  0  0  0
    1.6100    0.3715   -4.6627 H   0  0  0  0  0  0
    1.6083   -0.8053   -2.4859 H   0  0  0  0  0  0
    1.9989    5.1812   -2.3440 H   0  0  0  0  0  0
    1.6053    1.9773   -6.4862 H   0  0  0  0  0  0
    1.9202    4.9657   -7.0118 H   0  0  0  0  0  0
    2.0338    5.6698   -9.3126 H   0  0  0  0  0  0
    1.9151    5.1271  -11.7502 H   0  0  0  0  0  0
    1.5396    2.7426  -12.4440 H   0  0  0  0  0  0
    1.3014    1.0020  -10.6527 H   0  0  0  0  0  0
  1  2  2  0  0  0
  1  6  1  0  0  0
  1 11  1  0  0  0
  2  3  1  0  0  0
  2 29  1  0  0  0
  3  4  2  0  0  0
  3 30  1  0  0  0
  4  5  1  0  0  0
  4 31  1  0  0  0
  5  6  2  0  0  0
  5 32  1  0  0  0
  6  7  1  0  0  0
  7  8  2  0  0  0
  7  9  1  0  0  0
  9 10  1  0  0  0
  9 33  1  0  0  0
 10 34  1  0  0  0
 10 35  1  0  0  0
 10 36  1  0  0  0
 11 12  1  0  0  0
 12 13  2  0  0  0
 12 17  1  0  0  0
 13 14  1  0  0  0
 13 37  1  0  0  0
 14 15  2  0  0  0
 14 18  1  0  0  0
 15 16  1  0  0  0
 15 20  1  0  0  0
 16 17  2  0  0  0
 16 38  1  0  0  0
 17 39  1  0  0  0
 18 19  1  0  0  0
 18 40  1  0  0  0
 19 20  2  0  0  0
 20 21  1  0  0  0
 21 22  2  0  0  0
 21 41  1  0  0  0
 22 23  1  0  0  0
 22 42  1  0  0  0
 23 24  2  0  0  0
 23 28  1  0  0  0
 24 25  1  0  0  0
 24 43  1  0  0  0
 25 26  2  0  0  0
 25 44  1  0  0  0
 26 27  1  0  0  0
 26 45  1  0  0  0
 27 28  2  0  0  0
 27 46  1  0  0  0
M  END
> <s_m_entry_id>
48

> <i_f3d_flags>
0

> <r_epik_Ionization_Penalty>
  0.0045

> <r_epik_State_Penalty>
  0.0032

> <i_epik_Tot_Q>
0

> <s_m_Source_Path>
/media/4tb_disk1/SijieChen/TKI/pharmacophore_hypothesis-2/ligprep57_mae/active_less_than_50

> <s_m_Source_File>
Axitinib.mae

> <i_m_Source_File_Index>
1

> <chiral flag>
0

> <version>
0

> <Mol_ID>
5

> <Formula>
C22H18N4OS

> <MolWeight>
386.46952

> <Item Name>
Axitinib

> <Catalog Number>
S1005

> <Synonyms>
AG 013736

> <Target>
VEGFR, PDGFR, c-Kit

> <URL>
http://www.selleckchem.com/products/Axitinib.html

> <CAS Number>
319460-85-0

$$$$
Avapritinib
                    3D
 Structure written by MMmdl.
 65 70  0  0  1  0            999 V2000
   -4.6298    1.3150    0.0907 N   0  0  0  0  0  0
   -5.9914    1.2719    0.0786 C   0  0  0  0  0  0
   -6.8180    1.0742   -0.9827 N   0  0  0  0  0  0
   -6.1218    0.9191   -2.1067 N   0  0  0  0  0  0
   -4.7619    0.9341   -2.2662 C   0  0  0  0  0  0
   -3.9853    1.1388   -1.0954 C   0  0  0  0  0  0
   -6.6328    0.7145   -3.3761 C   0  0  0  0  0  0
   -5.5865    0.6186   -4.2839 C   0  0  0  0  0  0
   -4.3299    0.7620   -3.6012 C   0  0  0  0  0  0
   -2.5784    1.1562   -1.1275 N   0  0  0  0  0  0
   -5.8357    0.4065   -5.7171 C   0  0  0  0  0  0
   -7.0336    0.2619   -6.3550 C   0  0  0  0  0  0
   -6.7363    0.0923   -7.6922 N   0  0  0  0  0  0
   -5.4034    0.1203   -7.9279 N   0  0  0  0  0  0
   -4.8525    0.3103   -6.7385 C   0  0  0  0  0  0
   -7.6481   -0.1011   -8.7993 C   0  0  0  0  0  0
   -1.9723   -0.1417   -1.3999 C   0  0  0  0  0  0
   -0.4813    0.0098   -1.7455 C   0  0  0  0  0  0
    0.2385    0.8116   -0.7466 N   0  0  0  0  0  0
   -0.4056    2.0892   -0.4136 C   0  0  0  0  0  0
   -1.8989    1.9172   -0.0846 C   0  0  0  0  0  0
    1.6049    0.6068   -0.5108 C   0  0  0  0  0  0
    2.1324   -0.5635   -0.8919 N   0  0  0  0  0  0
    3.4481   -0.7663   -0.6748 C   0  0  0  0  0  0
    4.2678    0.2073   -0.0589 C   0  0  0  0  0  0
    3.6111    1.4099    0.2905 C   0  0  0  0  0  0
    2.2937    1.5976    0.0709 N   0  0  0  0  0  0
    5.7707   -0.0211    0.1536 C   0  0  2  0  0  0
    6.0454   -1.4708    0.5913 C   0  0  0  0  0  0
    5.3857   -1.9798    1.7364 C   0  0  0  0  0  0
    5.6104   -3.2986    2.1747 C   0  0  0  0  0  0
    6.5012   -4.1307    1.4730 C   0  0  0  0  0  0
    7.1664   -3.6402    0.3348 C   0  0  0  0  0  0
    6.9429   -2.3201   -0.1032 C   0  0  0  0  0  0
    6.7180   -5.3995    1.8922 F   0  0  0  0  0  0
    6.2861    0.8429    1.2360 N   0  3  0  0  0  0
    6.4991    0.3772   -1.1475 C   0  0  0  0  0  0
   -6.4757    1.4119    1.0335 H   0  0  0  0  0  0
   -7.7052    0.6637   -3.4979 H   0  0  0  0  0  0
   -3.2987    0.7590   -3.9220 H   0  0  0  0  0  0
   -8.0477    0.2659   -5.9836 H   0  0  0  0  0  0
   -3.7772    0.3717   -6.6576 H   0  0  0  0  0  0
   -8.6790   -0.0235   -8.4530 H   0  0  0  0  0  0
   -7.4936   -1.0881   -9.2359 H   0  0  0  0  0  0
   -7.4721    0.6594   -9.5608 H   0  0  0  0  0  0
   -2.0819   -0.7686   -0.5138 H   0  0  0  0  0  0
   -2.4857   -0.6582   -2.2105 H   0  0  0  0  0  0
   -0.0602   -0.9885   -1.8579 H   0  0  0  0  0  0
   -0.3771    0.5014   -2.7133 H   0  0  0  0  0  0
    0.0705    2.5725    0.4393 H   0  0  0  0  0  0
   -0.2891    2.7623   -1.2636 H   0  0  0  0  0  0
   -2.3662    2.8959    0.0302 H   0  0  0  0  0  0
   -2.0063    1.3943    0.8668 H   0  0  0  0  0  0
    3.8473   -1.7135   -1.0068 H   0  0  0  0  0  0
    4.1364    2.2365    0.7449 H   0  0  0  0  0  0
    4.6972   -1.3561    2.2881 H   0  0  0  0  0  0
    5.0988   -3.6717    3.0499 H   0  0  0  0  0  0
    7.8508   -4.2784   -0.2052 H   0  0  0  0  0  0
    7.4735   -1.9867   -0.9815 H   0  0  0  0  0  0
    5.8110    0.6222    2.0996 H   0  0  0  0  0  0
    6.1305    1.8127    1.0017 H   0  0  0  0  0  0
    6.1872   -0.2436   -1.9885 H   0  0  0  0  0  0
    7.5823    0.2933   -1.0506 H   0  0  0  0  0  0
    6.2845    1.4123   -1.4170 H   0  0  0  0  0  0
    7.2765    0.6803    1.3497 H   0  0  0  0  0  0
  1  2  1  0  0  0
  1  6  2  0  0  0
  2  3  2  0  0  0
  2 38  1  0  0  0
  3  4  1  0  0  0
  4  5  1  0  0  0
  4  7  1  0  0  0
  5  6  1  0  0  0
  5  9  2  0  0  0
  6 10  1  0  0  0
  7  8  2  0  0  0
  7 39  1  0  0  0
  8  9  1  0  0  0
  8 11  1  0  0  0
  9 40  1  0  0  0
 10 17  1  0  0  0
 10 21  1  0  0  0
 11 12  2  0  0  0
 11 15  1  0  0  0
 12 13  1  0  0  0
 12 41  1  0  0  0
 13 14  1  0  0  0
 13 16  1  0  0  0
 14 15  2  0  0  0
 15 42  1  0  0  0
 16 43  1  0  0  0
 16 44  1  0  0  0
 16 45  1  0  0  0
 17 18  1  0  0  0
 17 46  1  0  0  0
 17 47  1  0  0  0
 18 19  1  0  0  0
 18 48  1  0  0  0
 18 49  1  0  0  0
 19 20  1  0  0  0
 19 22  1  0  0  0
 20 21  1  0  0  0
 20 50  1  0  0  0
 20 51  1  0  0  0
 21 52  1  0  0  0
 21 53  1  0  0  0
 22 23  2  0  0  0
 22 27  1  0  0  0
 23 24  1  0  0  0
 24 25  2  0  0  0
 24 54  1  0  0  0
 25 26  1  0  0  0
 25 28  1  0  0  0
 26 27  2  0  0  0
 26 55  1  0  0  0
 28 29  1  0  0  0
 28 36  1  0  0  0
 28 37  1  0  0  0
 29 30  2  0  0  0
 29 34  1  0  0  0
 30 31  1  0  0  0
 30 56  1  0  0  0
 31 32  2  0  0  0
 31 57  1  0  0  0
 32 33  1  0  0  0
 32 35  1  0  0  0
 33 34  2  0  0  0
 33 58  1  0  0  0
 34 59  1  0  0  0
 36 60  1  0  0  0
 36 61  1  0  0  0
 36 65  1  0  0  0
 37 62  1  0  0  0
 37 63  1  0  0  0
 37 64  1  0  0  0
M  CHG  1  36   1
M  END
> <s_m_entry_id>
49

> <i_f3d_flags>
0

> <r_lp_tautomer_probability>
1

> <r_epik_Ionization_Penalty>
  0.6756

> <r_epik_State_Penalty>
  0.6588

> <i_epik_Tot_Q>
1

> <s_m_Source_Path>
/media/4tb_disk1/SijieChen/TKI/pharmacophore_hypothesis-2/ligprep57_mae/active_less_than_50

> <s_m_Source_File>
Avapritinib.mae

> <i_m_Source_File_Index>
1

$$$$
Afatinib
                    3D
 Structure written by MMmdl.
 60 63  0  0  1  0            999 V2000
   -2.5735    0.9390    2.3422 C   0  0  0  0  0  0
   -4.1735    2.0138    0.8288 C   0  0  0  0  0  0
   -2.1634    0.9482   -0.0985 C   0  0  0  0  0  0
   -0.6495    0.9534   -0.0317 C   0  0  0  0  0  0
    0.1106   -0.1557    0.0264 C   0  0  0  0  0  0
    1.5592   -0.0628    0.0892 C   0  0  0  0  0  0
    2.1986    0.9900    0.0986 O   0  0  0  0  0  0
    2.1139   -1.2888    0.1151 N   0  0  0  0  0  0
    3.4936   -1.6332    0.1620 C   0  0  0  0  0  0
    4.4547   -0.8148    0.7984 C   0  0  0  0  0  0
    5.8128   -1.1977    0.8330 C   0  0  0  0  0  0
    6.2225   -2.4217    0.2405 C   0  0  0  0  0  0
    5.2507   -3.2394   -0.3700 C   0  0  0  0  0  0
    3.8846   -2.8640   -0.4128 C   0  0  0  0  0  0
    2.8941   -3.6337   -0.9933 O   0  0  0  0  0  0
    3.2351   -4.8738   -1.6058 C   0  0  1  0  0  0
    1.9547   -5.6229   -1.9436 C   0  0  0  0  0  0
    2.2847   -6.2815   -3.2752 C   0  0  0  0  0  0
    3.0349   -5.2749   -3.9313 O   0  0  0  0  0  0
    3.9180   -4.7019   -2.9752 C   0  0  0  0  0  0
    7.5210   -2.7964    0.2673 N   0  0  0  0  0  0
    8.3884   -1.9782    0.8637 C   0  0  0  0  0  0
    8.1102   -0.8127    1.4477 N   0  0  0  0  0  0
    6.8195   -0.4070    1.4486 C   0  0  0  0  0  0
    6.4959    0.8313    2.0327 N   0  0  0  0  0  0
    7.2708    1.6723    2.8472 C   0  0  0  0  0  0
    7.0018    3.0566    2.8115 C   0  0  0  0  0  0
    7.7320    3.9493    3.6195 C   0  0  0  0  0  0
    8.7328    3.4631    4.4812 C   0  0  0  0  0  0
    8.9971    2.0805    4.5388 C   0  0  0  0  0  0
    8.2654    1.1888    3.7296 C   0  0  0  0  0  0
   10.2105    1.4709    5.6047 Cl  0  0  0  0  0  0
    9.4319    4.3261    5.2566 F   0  0  0  0  0  0
   -2.7562    1.6586    1.0604 N   0  3  0  0  0  0
   -3.0738   -0.0302    2.3209 H   0  0  0  0  0  0
   -2.9888    1.5170    3.1684 H   0  0  0  0  0  0
   -1.5180    0.7734    2.5586 H   0  0  0  0  0  0
   -4.7865    1.1191    0.7125 H   0  0  0  0  0  0
   -4.2792    2.6211   -0.0709 H   0  0  0  0  0  0
   -4.5679    2.5926    1.6648 H   0  0  0  0  0  0
   -2.4487    1.4486   -1.0247 H   0  0  0  0  0  0
   -2.5473   -0.0718   -0.1541 H   0  0  0  0  0  0
   -0.1900    1.9321   -0.0327 H   0  0  0  0  0  0
   -0.3687   -1.1250    0.0266 H   0  0  0  0  0  0
    1.4801   -2.0661   -0.0021 H   0  0  0  0  0  0
    4.1509    0.1033    1.2758 H   0  0  0  0  0  0
    5.5883   -4.1658   -0.8080 H   0  0  0  0  0  0
    3.8375   -5.4969   -0.9429 H   0  0  0  0  0  0
    1.6618   -6.3373   -1.1738 H   0  0  0  0  0  0
    1.1308   -4.9218   -2.0846 H   0  0  0  0  0  0
    2.9005   -7.1712   -3.1336 H   0  0  0  0  0  0
    1.3959   -6.5591   -3.8422 H   0  0  0  0  0  0
    4.1168   -3.6590   -3.2232 H   0  0  0  0  0  0
    4.8669   -5.2392   -2.9971 H   0  0  0  0  0  0
    9.4221   -2.2908    0.8735 H   0  0  0  0  0  0
    5.5928    1.1998    1.7717 H   0  0  0  0  0  0
    6.2340    3.4423    2.1563 H   0  0  0  0  0  0
    7.5223    5.0079    3.5795 H   0  0  0  0  0  0
    8.4685    0.1317    3.8099 H   0  0  0  0  0  0
   -2.2579    2.5334    1.1452 H   0  0  0  0  0  0
  1 35  1  0  0  0
  1 36  1  0  0  0
  1 37  1  0  0  0
  1 34  1  0  0  0
  2 38  1  0  0  0
  2 39  1  0  0  0
  2 40  1  0  0  0
  2 34  1  0  0  0
  3  4  1  0  0  0
  3 41  1  0  0  0
  3 42  1  0  0  0
  3 34  1  0  0  0
  4  5  2  0  0  0
  4 43  1  0  0  0
  5  6  1  0  0  0
  5 44  1  0  0  0
  6  7  2  0  0  0
  6  8  1  0  0  0
  8  9  1  0  0  0
  8 45  1  0  0  0
  9 10  1  0  0  0
  9 14  2  0  0  0
 10 11  2  0  0  0
 10 46  1  0  0  0
 11 12  1  0  0  0
 11 24  1  0  0  0
 12 13  2  0  0  0
 12 21  1  0  0  0
 13 14  1  0  0  0
 13 47  1  0  0  0
 14 15  1  0  0  0
 15 16  1  0  0  0
 16 17  1  0  0  0
 16 20  1  0  0  0
 16 48  1  0  0  0
 17 18  1  0  0  0
 17 49  1  0  0  0
 17 50  1  0  0  0
 18 19  1  0  0  0
 18 51  1  0  0  0
 18 52  1  0  0  0
 19 20  1  0  0  0
 20 53  1  0  0  0
 20 54  1  0  0  0
 21 22  2  0  0  0
 22 23  1  0  0  0
 22 55  1  0  0  0
 23 24  2  0  0  0
 24 25  1  0  0  0
 25 26  1  0  0  0
 25 56  1  0  0  0
 26 27  2  0  0  0
 26 31  1  0  0  0
 27 28  1  0  0  0
 27 57  1  0  0  0
 28 29  2  0  0  0
 28 58  1  0  0  0
 29 30  1  0  0  0
 29 33  1  0  0  0
 30 31  2  0  0  0
 30 32  1  0  0  0
 31 59  1  0  0  0
 34 60  1  0  0  0
M  CHG  1  34   1
M  END
> <s_m_entry_id>
50

> <i_f3d_flags>
0

> <r_lp_tautomer_probability>
0.999978000241998

> <r_epik_Ionization_Penalty>
  0.1657

> <r_epik_State_Penalty>
  0.1823

> <i_epik_Tot_Q>
1

> <s_pdb_PDB_TITLE>
Afatinib

> <s_m_Source_Path>
/media/4tb_disk1/SijieChen/TKI/pharmacophore_hypothesis-2/ligprep57_mae/active_less_than_50

> <s_m_Source_File>
Afatinib.mae

> <i_m_Source_File_Index>
1

$$$$
Vemurafenib
                    3D
 Structure written by MMmdl.
 51 54  0  0  1  0            999 V2000
   -0.0640    3.9606   -1.1977 C   0  0  0  0  0  0
    0.0520    2.4331   -1.2274 C   0  0  0  0  0  0
   -0.1654    1.8001    0.1543 C   0  0  0  0  0  0
    0.0083   -0.0345    0.0944 S   0  0  0  0  0  0
   -0.3162   -0.6017    1.4120 O   0  0  0  0  0  0
   -0.6045   -0.5579   -1.1360 O   0  0  0  0  0  0
    1.7175   -0.2381   -0.1043 N   0  0  0  0  0  0
    2.4555   -1.4249   -0.1142 C   0  0  0  0  0  0
    1.8222   -2.6859   -0.1190 C   0  0  0  0  0  0
    2.5922   -3.8633   -0.1123 C   0  0  0  0  0  0
    3.9976   -3.7912   -0.0827 C   0  0  0  0  0  0
    4.6413   -2.5332   -0.0642 C   0  0  0  0  0  0
    3.8635   -1.3512   -0.1055 C   0  0  0  0  0  0
    4.4647   -0.1349   -0.1128 F   0  0  0  0  0  0
    6.1215   -2.4607    0.0104 C   0  0  0  0  0  0
    6.8214   -2.9886   -0.8536 O   0  0  0  0  0  0
    6.6691   -1.7464    1.1627 C   0  0  0  0  0  0
    7.9733   -1.3145    1.2135 C   0  0  0  0  0  0
    8.1947   -0.6572    2.4112 N   0  0  0  0  0  0
    7.0490   -0.6542    3.1765 C   0  0  0  0  0  0
    6.0691   -1.3511    2.4185 C   0  0  0  0  0  0
    4.8090   -1.4801    3.0477 C   0  0  0  0  0  0
    4.5740   -0.9120    4.3194 C   0  0  0  0  0  0
    5.6556   -0.2421    4.9404 C   0  0  0  0  0  0
    6.8909   -0.0994    4.4110 N   0  0  0  0  0  0
    3.2484   -1.0115    4.9622 C   0  0  0  0  0  0
    3.1287   -1.1896    6.3599 C   0  0  0  0  0  0
    1.8641   -1.2849    6.9724 C   0  0  0  0  0  0
    0.6957   -1.2017    6.1932 C   0  0  0  0  0  0
    0.7966   -1.0241    4.8015 C   0  0  0  0  0  0
    2.0631   -0.9304    4.1934 C   0  0  0  0  0  0
   -0.8547   -1.3162    6.9415 Cl  0  0  0  0  0  0
    4.7194   -4.9381   -0.0510 F   0  0  0  0  0  0
    0.0956    4.3810   -2.1910 H   0  0  0  0  0  0
    0.6760    4.3993   -0.5279 H   0  0  0  0  0  0
   -1.0518    4.2737   -0.8587 H   0  0  0  0  0  0
   -0.6767    2.0338   -1.9333 H   0  0  0  0  0  0
    1.0353    2.1553   -1.6081 H   0  0  0  0  0  0
    0.5400    2.1880    0.8895 H   0  0  0  0  0  0
   -1.1703    2.0247    0.5129 H   0  0  0  0  0  0
    2.2677    0.6082   -0.1291 H   0  0  0  0  0  0
    0.7452   -2.7639   -0.1289 H   0  0  0  0  0  0
    2.1025   -4.8260   -0.1180 H   0  0  0  0  0  0
    8.7655   -1.4119    0.4851 H   0  0  0  0  0  0
    9.0815   -0.2462    2.6649 H   0  0  0  0  0  0
    4.0164   -2.0178    2.5513 H   0  0  0  0  0  0
    5.5245    0.2142    5.9105 H   0  0  0  0  0  0
    4.0126   -1.2630    6.9763 H   0  0  0  0  0  0
    1.7934   -1.4230    8.0412 H   0  0  0  0  0  0
   -0.0964   -0.9570    4.1978 H   0  0  0  0  0  0
    2.1152   -0.7861    3.1239 H   0  0  0  0  0  0
  1  2  1  0  0  0
  1 34  1  0  0  0
  1 35  1  0  0  0
  1 36  1  0  0  0
  2  3  1  0  0  0
  2 37  1  0  0  0
  2 38  1  0  0  0
  3  4  1  0  0  0
  3 39  1  0  0  0
  3 40  1  0  0  0
  4  5  2  0  0  0
  4  6  2  0  0  0
  4  7  1  0  0  0
  7  8  1  0  0  0
  7 41  1  0  0  0
  8  9  1  0  0  0
  8 13  2  0  0  0
  9 10  2  0  0  0
  9 42  1  0  0  0
 10 11  1  0  0  0
 10 43  1  0  0  0
 11 12  2  0  0  0
 11 33  1  0  0  0
 12 13  1  0  0  0
 12 15  1  0  0  0
 13 14  1  0  0  0
 15 16  2  0  0  0
 15 17  1  0  0  0
 17 18  2  0  0  0
 17 21  1  0  0  0
 18 19  1  0  0  0
 18 44  1  0  0  0
 19 20  1  0  0  0
 19 45  1  0  0  0
 20 21  1  0  0  0
 20 25  2  0  0  0
 21 22  2  0  0  0
 22 23  1  0  0  0
 22 46  1  0  0  0
 23 24  2  0  0  0
 23 26  1  0  0  0
 24 25  1  0  0  0
 24 47  1  0  0  0
 26 27  1  0  0  0
 26 31  2  0  0  0
 27 28  2  0  0  0
 27 48  1  0  0  0
 28 29  1  0  0  0
 28 49  1  0  0  0
 29 30  2  0  0  0
 29 32  1  0  0  0
 30 31  1  0  0  0
 30 50  1  0  0  0
 31 51  1  0  0  0
M  END
> <s_m_entry_id>
51

> <i_f3d_flags>
0

> <r_epik_Ionization_Penalty>
  0.3813

> <r_epik_State_Penalty>
  0.3792

> <i_epik_Tot_Q>
0

> <s_pdb_PDB_TITLE>
Vemurafenib

> <s_m_Source_Path>
/media/4tb_disk1/SijieChen/TKI/pharmacophore_hypothesis-2/ligprep57_mae/inactive

> <s_m_Source_File>
Vemurafenib.mae

> <i_m_Source_File_Index>
1

$$$$
Midostaurin
                    3D
 Structure written by MMmdl.
 73 81  0  0  1  0            999 V2000
    1.0649   -3.4725   -1.9097 C   0  0  0  0  0  0
   -0.1481   -2.7951   -1.2331 C   0  0  2  0  0  0
   -0.1464   -1.2099   -1.4156 C   0  0  1  0  0  0
    0.1975   -0.4183   -0.0516 C   0  0  1  0  0  0
   -0.2776   -1.1026    1.2986 C   0  0  0  0  0  0
   -0.9549   -2.3420    0.7900 C   0  0  1  0  0  0
    0.0234   -3.0168    0.0968 O   0  0  0  0  0  0
   -1.6376   -3.3636    1.5004 N   0  0  0  0  0  0
   -1.9066   -3.6521    2.8423 C   0  0  0  0  0  0
   -1.5286   -3.1005    4.0774 C   0  0  0  0  0  0
   -2.0425   -3.6692    5.2591 C   0  0  0  0  0  0
   -2.9293   -4.7661    5.1963 C   0  0  0  0  0  0
   -3.3212   -5.3144    3.9558 C   0  0  0  0  0  0
   -2.8128   -4.7657    2.7548 C   0  0  0  0  0  0
   -3.0531   -5.0917    1.4108 C   0  0  0  0  0  0
   -2.2555   -4.2366    0.6680 C   0  0  0  0  0  0
   -2.1967   -4.2405   -0.7673 C   0  0  0  0  0  0
   -1.3900   -3.5297   -1.6455 N   0  0  0  0  0  0
   -1.8368   -3.7674   -2.9659 C   0  0  0  0  0  0
   -1.4613   -3.3093   -4.2424 C   0  0  0  0  0  0
   -2.1239   -3.8208   -5.3772 C   0  0  0  0  0  0
   -3.1443   -4.7878   -5.2386 C   0  0  0  0  0  0
   -3.5230   -5.2582   -3.9636 C   0  0  0  0  0  0
   -2.8715   -4.7465   -2.8204 C   0  0  0  0  0  0
   -3.0635   -5.0432   -1.4812 C   0  0  0  0  0  0
   -3.8953   -5.9206   -0.7480 C   0  0  0  0  0  0
   -3.8783   -5.9711    0.6532 C   0  0  0  0  0  0
   -4.8678   -6.9923    1.0967 C   0  0  0  0  0  0
   -5.1298   -7.3156    2.2505 O   0  0  0  0  0  0
   -5.4225   -7.4964   -0.0199 N   0  0  0  0  0  0
   -4.9051   -6.9127   -1.2610 C   0  0  0  0  0  0
    1.5981    0.0723    0.0008 N   0  0  0  0  0  0
    1.7813    1.5053   -0.2866 C   0  0  0  0  0  0
    2.6668   -0.7236    0.2708 C   0  0  0  0  0  0
    2.5868   -1.9054    0.5983 O   0  0  0  0  0  0
    4.0333   -0.1210    0.1389 C   0  0  0  0  0  0
    4.7202   -0.1959   -1.0917 C   0  0  0  0  0  0
    6.0052    0.3667   -1.2183 C   0  0  0  0  0  0
    6.6079    1.0028   -0.1156 C   0  0  0  0  0  0
    5.9273    1.0741    1.1154 C   0  0  0  0  0  0
    4.6430    0.5101    1.2444 C   0  0  0  0  0  0
    0.7128   -0.8286   -2.4864 O   0  0  0  0  0  0
    0.2548    0.2957   -3.2198 C   0  0  0  0  0  0
    1.0125   -3.3765   -2.9928 H   0  0  0  0  0  0
    1.0879   -4.5334   -1.6576 H   0  0  0  0  0  0
    1.9981   -3.0207   -1.5809 H   0  0  0  0  0  0
   -1.1718   -0.9576   -1.6956 H   0  0  0  0  0  0
   -0.4439    0.4599   -0.1132 H   0  0  0  0  0  0
    0.5254   -1.3765    1.9819 H   0  0  0  0  0  0
   -0.9947   -0.4872    1.8433 H   0  0  0  0  0  0
   -1.7920   -1.9234    0.2190 H   0  0  0  0  0  0
   -0.8552   -2.2573    4.1196 H   0  0  0  0  0  0
   -1.7588   -3.2620    6.2183 H   0  0  0  0  0  0
   -3.3169   -5.1895    6.1112 H   0  0  0  0  0  0
   -4.0007   -6.1473    3.9591 H   0  0  0  0  0  0
   -0.6786   -2.5742   -4.3562 H   0  0  0  0  0  0
   -1.8454   -3.4729   -6.3611 H   0  0  0  0  0  0
   -3.6396   -5.1719   -6.1182 H   0  0  0  0  0  0
   -4.3037   -5.9980   -3.8706 H   0  0  0  0  0  0
   -6.1334   -8.2132   -0.0175 H   0  0  0  0  0  0
   -5.6977   -6.4161   -1.8214 H   0  0  0  0  0  0
   -4.4316   -7.6704   -1.8859 H   0  0  0  0  0  0
    2.3787    1.6425   -1.1888 H   0  0  0  0  0  0
    2.2907    2.0033    0.5394 H   0  0  0  0  0  0
    0.8519    2.0510   -0.4448 H   0  0  0  0  0  0
    4.2633   -0.6825   -1.9417 H   0  0  0  0  0  0
    6.5289    0.3097   -2.1613 H   0  0  0  0  0  0
    7.5932    1.4341   -0.2135 H   0  0  0  0  0  0
    6.3908    1.5610    1.9608 H   0  0  0  0  0  0
    4.1265    0.5680    2.1918 H   0  0  0  0  0  0
    0.9972    0.5697   -3.9690 H   0  0  0  0  0  0
    0.0900    1.1590   -2.5759 H   0  0  0  0  0  0
   -0.6768    0.0676   -3.7388 H   0  0  0  0  0  0
  1  2  1  0  0  0
  1 44  1  0  0  0
  1 45  1  0  0  0
  1 46  1  0  0  0
  2  3  1  0  0  0
  2  7  1  0  0  0
  2 18  1  0  0  0
  3  4  1  0  0  0
  3 42  1  0  0  0
  3 47  1  0  0  0
  4  5  1  0  0  0
  4 32  1  0  0  0
  4 48  1  0  0  0
  5  6  1  0  0  0
  5 49  1  0  0  0
  5 50  1  0  0  0
  6  7  1  0  0  0
  6  8  1  0  0  0
  6 51  1  0  0  0
  8  9  1  0  0  0
  8 16  1  0  0  0
  9 10  1  0  0  0
  9 14  2  0  0  0
 10 11  2  0  0  0
 10 52  1  0  0  0
 11 12  1  0  0  0
 11 53  1  0  0  0
 12 13  2  0  0  0
 12 54  1  0  0  0
 13 14  1  0  0  0
 13 55  1  0  0  0
 14 15  1  0  0  0
 15 16  2  0  0  0
 15 27  1  0  0  0
 16 17  1  0  0  0
 17 18  1  0  0  0
 17 25  2  0  0  0
 18 19  1  0  0  0
 19 20  2  0  0  0
 19 24  1  0  0  0
 20 21  1  0  0  0
 20 56  1  0  0  0
 21 22  2  0  0  0
 21 57  1  0  0  0
 22 23  1  0  0  0
 22 58  1  0  0  0
 23 24  2  0  0  0
 23 59  1  0  0  0
 24 25  1  0  0  0
 25 26  1  0  0  0
 26 27  2  0  0  0
 26 31  1  0  0  0
 27 28  1  0  0  0
 28 29  2  0  0  0
 28 30  1  0  0  0
 30 31  1  0  0  0
 30 60  1  0  0  0
 31 61  1  0  0  0
 31 62  1  0  0  0
 32 33  1  0  0  0
 32 34  1  0  0  0
 33 63  1  0  0  0
 33 64  1  0  0  0
 33 65  1  0  0  0
 34 35  2  0  0  0
 34 36  1  0  0  0
 36 37  1  0  0  0
 36 41  2  0  0  0
 37 38  2  0  0  0
 37 66  1  0  0  0
 38 39  1  0  0  0
 38 67  1  0  0  0
 39 40  2  0  0  0
 39 68  1  0  0  0
 40 41  1  0  0  0
 40 69  1  0  0  0
 41 70  1  0  0  0
 42 43  1  0  0  0
 43 71  1  0  0  0
 43 72  1  0  0  0
 43 73  1  0  0  0
M  END
> <s_m_entry_id>
52

> <i_f3d_flags>
0

> <r_lp_tautomer_probability>
1

> <r_epik_Ionization_Penalty>
  0.0000

> <r_epik_State_Penalty>
  0.0000

> <i_epik_Tot_Q>
0

> <s_pdb_PDB_TITLE>
Midostaurin

> <s_m_Source_Path>
/media/4tb_disk1/SijieChen/TKI/pharmacophore_hypothesis-2/ligprep57_mae/inactive

> <s_m_Source_File>
Midostaurin.mae

> <i_m_Source_File_Index>
1

$$$$
Larotrectinib
                    3D
 Structure written by MMmdl.
 53 57  0  0  1  0            999 V2000
   -2.7544   -5.1129   -4.9029 C   0  0  0  0  0  0
   -1.4002   -4.7343   -4.8354 C   0  0  0  0  0  0
   -0.7333   -4.7090   -3.5947 C   0  0  0  0  0  0
   -1.4207   -5.0602   -2.4113 C   0  0  0  0  0  0
   -2.7773   -5.4486   -2.4880 C   0  0  0  0  0  0
   -3.4425   -5.4717   -3.7286 C   0  0  0  0  0  0
   -4.7441   -5.8391   -3.7919 F   0  0  0  0  0  0
   -0.6994   -5.0255   -1.0691 C   0  0  2  0  0  0
   -0.2214   -6.4021   -0.6097 C   0  0  0  0  0  0
    0.0431   -6.1734    0.8768 C   0  0  0  0  0  0
   -0.9988   -5.1241    1.2863 C   0  0  0  0  0  0
   -1.4940   -4.5284    0.0501 N   0  0  0  0  0  0
   -1.7421   -3.1697    0.0760 C   0  0  0  0  0  0
   -3.0877   -2.7287   -0.0199 C   0  0  0  0  0  0
   -3.3399   -1.3760   -0.0139 C   0  0  0  0  0  0
   -2.2733   -0.5347    0.0860 N   0  0  0  0  0  0
   -0.9514   -1.0284    0.1846 C   0  0  0  0  0  0
   -0.6961   -2.3486    0.1815 N   0  0  0  0  0  0
   -0.1733    0.0913    0.2665 C   0  0  0  0  0  0
   -1.0571    1.1999    0.2137 C   0  0  0  0  0  0
   -2.3172    0.8405    0.1052 N   0  0  0  0  0  0
    1.2395    0.0747    0.3877 N   0  0  0  0  0  0
    2.0775    1.1277    0.4254 C   0  0  0  0  0  0
    1.7127    2.2991    0.3208 O   0  0  0  0  0  0
    3.3742    0.7832    0.5875 N   0  0  0  0  0  0
    3.9068   -0.5764    0.7277 C   0  0  0  0  0  0
    5.4276   -0.4355    0.6686 C   0  0  0  0  0  0
    5.6845    0.9881    1.1470 C   0  0  2  0  0  0
    4.4523    1.7671    0.6816 C   0  0  0  0  0  0
    6.8830    1.5085    0.6118 O   0  0  0  0  0  0
    0.5704   -4.3434   -3.5480 F   0  0  0  0  0  0
   -3.2640   -5.1302   -5.8550 H   0  0  0  0  0  0
   -0.8722   -4.4624   -5.7374 H   0  0  0  0  0  0
   -3.3148   -5.7290   -1.5940 H   0  0  0  0  0  0
    0.1783   -4.3853   -1.1690 H   0  0  0  0  0  0
   -1.0161   -7.1407   -0.7265 H   0  0  0  0  0  0
    0.6534   -6.7555   -1.1562 H   0  0  0  0  0  0
   -0.0232   -7.0885    1.4659 H   0  0  0  0  0  0
    1.0446   -5.7618    1.0085 H   0  0  0  0  0  0
   -1.8372   -5.6017    1.7941 H   0  0  0  0  0  0
   -0.5738   -4.3881    1.9703 H   0  0  0  0  0  0
   -3.9052   -3.4377   -0.1043 H   0  0  0  0  0  0
   -4.3305   -0.9392   -0.0865 H   0  0  0  0  0  0
   -0.8140    2.2510    0.2546 H   0  0  0  0  0  0
    1.6622   -0.8397    0.4598 H   0  0  0  0  0  0
    3.5985   -0.9823    1.6923 H   0  0  0  0  0  0
    3.5472   -1.2457   -0.0556 H   0  0  0  0  0  0
    5.9471   -1.1842    1.2674 H   0  0  0  0  0  0
    5.7557   -0.5500   -0.3659 H   0  0  0  0  0  0
    5.7356    1.0019    2.2367 H   0  0  0  0  0  0
    4.6095    2.1989   -0.3084 H   0  0  0  0  0  0
    4.2145    2.5796    1.3704 H   0  0  0  0  0  0
    6.8234    1.4918   -0.3313 H   0  0  0  0  0  0
  1  2  1  0  0  0
  1  6  2  0  0  0
  1 32  1  0  0  0
  2  3  2  0  0  0
  2 33  1  0  0  0
  3  4  1  0  0  0
  3 31  1  0  0  0
  4  5  2  0  0  0
  4  8  1  0  0  0
  5  6  1  0  0  0
  5 34  1  0  0  0
  6  7  1  0  0  0
  8  9  1  0  0  0
  8 12  1  0  0  0
  8 35  1  0  0  0
  9 10  1  0  0  0
  9 36  1  0  0  0
  9 37  1  0  0  0
 10 11  1  0  0  0
 10 38  1  0  0  0
 10 39  1  0  0  0
 11 12  1  0  0  0
 11 40  1  0  0  0
 11 41  1  0  0  0
 12 13  1  0  0  0
 13 14  1  0  0  0
 13 18  2  0  0  0
 14 15  2  0  0  0
 14 42  1  0  0  0
 15 16  1  0  0  0
 15 43  1  0  0  0
 16 17  1  0  0  0
 16 21  1  0  0  0
 17 18  1  0  0  0
 17 19  2  0  0  0
 19 20  1  0  0  0
 19 22  1  0  0  0
 20 21  2  0  0  0
 20 44  1  0  0  0
 22 23  1  0  0  0
 22 45  1  0  0  0
 23 24  2  0  0  0
 23 25  1  0  0  0
 25 26  1  0  0  0
 25 29  1  0  0  0
 26 27  1  0  0  0
 26 46  1  0  0  0
 26 47  1  0  0  0
 27 28  1  0  0  0
 27 48  1  0  0  0
 27 49  1  0  0  0
 28 29  1  0  0  0
 28 30  1  0  0  0
 28 50  1  0  0  0
 29 51  1  0  0  0
 29 52  1  0  0  0
 30 53  1  0  0  0
M  END
> <s_m_entry_id>
53

> <i_f3d_flags>
0

> <r_lp_tautomer_probability>
1

> <r_epik_Ionization_Penalty>
  0.0003

> <r_epik_State_Penalty>
  0.0000

> <i_epik_Tot_Q>
0

> <s_pdb_PDB_TITLE>
Larotrectinib

> <s_m_Source_Path>
/media/4tb_disk1/SijieChen/TKI/pharmacophore_hypothesis-2/ligprep57_mae/inactive

> <s_m_Source_File>
Larotrectinib.mae

> <i_m_Source_File_Index>
1

$$$$
Lapatinib
                    3D
 Structure written by MMmdl.
 67 71  0  0  1  0            999 V2000
   -4.8279    2.5385   -1.7883 C   0  0  0  0  0  0
   -4.4020    3.1741   -0.1137 S   0  0  0  0  0  0
   -4.7133    4.6105   -0.0759 O   0  0  0  0  0  0
   -4.9942    2.2673    0.8813 O   0  0  0  0  0  0
   -2.5662    2.9827   -0.0710 C   0  0  0  0  0  0
   -2.1459    1.5075   -0.0096 C   0  0  0  0  0  0
   -0.2079   -0.0242    0.1061 C   0  0  0  0  0  0
    1.2809   -0.0927    0.0946 C   0  0  0  0  0  0
    2.2050   -0.3200   -0.8855 C   0  0  0  0  0  0
    3.4774   -0.2674   -0.2534 C   0  0  0  0  0  0
    3.2445   -0.0049    1.0696 C   0  0  0  0  0  0
    1.9024    0.1089    1.2896 O   0  0  0  0  0  0
    4.1303    0.1524    2.2201 C   0  0  0  0  0  0
    3.6538    0.6807    3.4390 C   0  0  0  0  0  0
    4.5120    0.8216    4.5458 C   0  0  0  0  0  0
    5.8642    0.4331    4.4691 C   0  0  0  0  0  0
    6.3495   -0.1042    3.2449 C   0  0  0  0  0  0
    5.4842   -0.2365    2.1339 C   0  0  0  0  0  0
    7.7143   -0.4967    3.2090 C   0  0  0  0  0  0
    8.5053   -0.3426    4.2960 N   0  0  0  0  0  0
    7.9506    0.1750    5.3919 C   0  0  0  0  0  0
    6.6840    0.5656    5.5351 N   0  0  0  0  0  0
    8.2785   -1.0204    2.0317 N   0  0  0  0  0  0
    9.4896   -1.7065    1.8483 C   0  0  0  0  0  0
   10.0729   -2.5158    2.8486 C   0  0  0  0  0  0
   11.2770   -3.2025    2.6019 C   0  0  0  0  0  0
   11.9204   -3.1009    1.3434 C   0  0  0  0  0  0
   11.3240   -2.3055    0.3412 C   0  0  0  0  0  0
   10.1181   -1.6219    0.5903 C   0  0  0  0  0  0
   12.0672   -2.1638   -1.2116 Cl  0  0  0  0  0  0
   13.1012   -3.7402    1.0281 O   0  0  0  0  0  0
   13.7159   -4.5575    2.0159 C   0  0  0  0  0  0
   14.9973   -5.1952    1.5118 C   0  0  0  0  0  0
   15.1436   -5.5355    0.1492 C   0  0  0  0  0  0
   16.3305   -6.1425   -0.3061 C   0  0  0  0  0  0
   17.3731   -6.4190    0.5991 C   0  0  0  0  0  0
   17.2272   -6.0914    1.9608 C   0  0  0  0  0  0
   16.0409   -5.4838    2.4164 C   0  0  0  0  0  0
   18.2269   -6.3614    2.8331 F   0  0  0  0  0  0
   -0.6768    1.3723    0.0362 N   0  3  0  0  0  0
   -5.8952    2.6750   -1.9627 H   0  0  0  0  0  0
   -4.5913    1.4775   -1.8577 H   0  0  0  0  0  0
   -4.2689    3.0897   -2.5440 H   0  0  0  0  0  0
   -2.1533    3.4790   -0.9497 H   0  0  0  0  0  0
   -2.2033    3.5167    0.8078 H   0  0  0  0  0  0
   -2.5746    1.0327    0.8738 H   0  0  0  0  0  0
   -2.5219    0.9705   -0.8803 H   0  0  0  0  0  0
   -0.6068   -0.5832   -0.7413 H   0  0  0  0  0  0
   -0.5955   -0.4939    1.0109 H   0  0  0  0  0  0
    1.9929   -0.5079   -1.9277 H   0  0  0  0  0  0
    4.4448   -0.4061   -0.7132 H   0  0  0  0  0  0
    2.6230    0.9875    3.5365 H   0  0  0  0  0  0
    4.1251    1.2311    5.4675 H   0  0  0  0  0  0
    5.8525   -0.6492    1.2066 H   0  0  0  0  0  0
    8.5938    0.2899    6.2517 H   0  0  0  0  0  0
    7.7483   -0.8503    1.1897 H   0  0  0  0  0  0
    9.5983   -2.6355    3.8108 H   0  0  0  0  0  0
   11.6838   -3.8074    3.3975 H   0  0  0  0  0  0
    9.6780   -1.0218   -0.1930 H   0  0  0  0  0  0
   13.9451   -3.9577    2.8984 H   0  0  0  0  0  0
   13.0391   -5.3587    2.3165 H   0  0  0  0  0  0
   14.3479   -5.3335   -0.5530 H   0  0  0  0  0  0
   16.4400   -6.3974   -1.3499 H   0  0  0  0  0  0
   18.2827   -6.8851    0.2496 H   0  0  0  0  0  0
   15.9349   -5.2390    3.4631 H   0  0  0  0  0  0
   -0.2870    1.7972   -0.7932 H   0  0  0  0  0  0
   -0.3295    1.8650    0.8468 H   0  0  0  0  0  0
  1  2  1  0  0  0
  1 41  1  0  0  0
  1 42  1  0  0  0
  1 43  1  0  0  0
  2  3  2  0  0  0
  2  4  2  0  0  0
  2  5  1  0  0  0
  5  6  1  0  0  0
  5 44  1  0  0  0
  5 45  1  0  0  0
  6 46  1  0  0  0
  6 47  1  0  0  0
  6 40  1  0  0  0
  7  8  1  0  0  0
  7 48  1  0  0  0
  7 49  1  0  0  0
  7 40  1  0  0  0
  8  9  2  0  0  0
  8 12  1  0  0  0
  9 10  1  0  0  0
  9 50  1  0  0  0
 10 11  2  0  0  0
 10 51  1  0  0  0
 11 12  1  0  0  0
 11 13  1  0  0  0
 13 14  1  0  0  0
 13 18  2  0  0  0
 14 15  2  0  0  0
 14 52  1  0  0  0
 15 16  1  0  0  0
 15 53  1  0  0  0
 16 17  1  0  0  0
 16 22  2  0  0  0
 17 18  1  0  0  0
 17 19  2  0  0  0
 18 54  1  0  0  0
 19 20  1  0  0  0
 19 23  1  0  0  0
 20 21  2  0  0  0
 21 22  1  0  0  0
 21 55  1  0  0  0
 23 24  1  0  0  0
 23 56  1  0  0  0
 24 25  1  0  0  0
 24 29  2  0  0  0
 25 26  2  0  0  0
 25 57  1  0  0  0
 26 27  1  0  0  0
 26 58  1  0  0  0
 27 28  2  0  0  0
 27 31  1  0  0  0
 28 29  1  0  0  0
 28 30  1  0  0  0
 29 59  1  0  0  0
 31 32  1  0  0  0
 32 33  1  0  0  0
 32 60  1  0  0  0
 32 61  1  0  0  0
 33 34  1  0  0  0
 33 38  2  0  0  0
 34 35  2  0  0  0
 34 62  1  0  0  0
 35 36  1  0  0  0
 35 63  1  0  0  0
 36 37  2  0  0  0
 36 64  1  0  0  0
 37 38  1  0  0  0
 37 39  1  0  0  0
 38 65  1  0  0  0
 40 66  1  0  0  0
 40 67  1  0  0  0
M  CHG  1  40   1
M  END
> <s_m_entry_id>
54

> <i_f3d_flags>
0

> <r_lp_tautomer_probability>
0.999978000241998

> <r_epik_Ionization_Penalty>
  0.0160

> <r_epik_State_Penalty>
  0.0120

> <i_epik_Tot_Q>
1

> <s_pdb_PDB_TITLE>
Lapatinib

> <s_m_Source_Path>
/media/4tb_disk1/SijieChen/TKI/pharmacophore_hypothesis-2/ligprep57_mae/inactive

> <s_m_Source_File>
Lapatinib.mae

> <i_m_Source_File_Index>
1

$$$$
Fostamatinib
                    3D
 Structure written by MMmdl.
 64 67  0  0  1  0            999 V2000
   -8.1751    2.8635    5.4085 C   0  0  0  0  0  0
   -6.7854    2.7548    4.7517 C   0  0  0  0  0  0
   -6.2284    1.3143    4.8694 C   0  0  0  0  0  0
   -6.4651    0.6613    5.8885 O   0  0  0  0  0  0
   -5.4714    0.8424    3.8503 N   0  0  0  0  0  0
   -5.2053    1.6449    2.6983 C   0  0  0  0  0  0
   -6.0069    2.7939    2.4914 C   0  0  0  0  0  0
   -5.8099    3.5737    1.3353 C   0  0  0  0  0  0
   -4.7954    3.2105    0.4309 C   0  0  0  0  0  0
   -4.0258    2.0650    0.7125 C   0  0  0  0  0  0
   -4.2344    1.3151    1.8153 N   0  0  0  0  0  0
   -2.9854    1.7086   -0.1576 N   0  0  0  0  0  0
   -2.1195    0.6110   -0.0433 C   0  0  0  0  0  0
   -2.5662   -0.7127    0.1872 C   0  0  0  0  0  0
   -1.5710   -1.7052    0.2885 C   0  0  0  0  0  0
   -0.2601   -1.4162    0.1320 N   0  0  0  0  0  0
    0.0509   -0.1430   -0.1188 C   0  0  0  0  0  0
   -0.8080    0.8767   -0.2297 N   0  0  0  0  0  0
    1.4010    0.1226   -0.2583 N   0  0  0  0  0  0
    2.1227    1.3074   -0.4520 C   0  0  0  0  0  0
    1.7088    2.2731   -1.3928 C   0  0  0  0  0  0
    2.4511    3.4642   -1.5785 C   0  0  0  0  0  0
    3.6223    3.6651   -0.8147 C   0  0  0  0  0  0
    4.0537    2.7056    0.1281 C   0  0  0  0  0  0
    3.2959    1.5208    0.2963 C   0  0  0  0  0  0
    5.2039    2.9886    0.8354 O   0  0  0  0  0  0
    5.6503    2.0439    1.7968 C   0  0  0  0  0  0
    4.3437    4.8190   -0.9772 O   0  0  0  0  0  0
    5.3293    4.7235   -1.9923 C   0  0  0  0  0  0
    2.1003    4.4557   -2.4718 O   0  0  0  0  0  0
    0.9238    4.2769   -3.2464 C   0  0  0  0  0  0
   -3.8796   -1.0316    0.2860 F   0  0  0  0  0  0
   -6.9863    3.1404    3.3875 O   0  0  0  0  0  0
   -4.8065   -0.4630    3.9874 C   0  0  0  0  0  0
   -3.7290   -0.3868    4.9104 O   0  0  0  0  0  0
   -2.3932   -1.2586    4.5247 P   0  0  0  0  0  0
   -2.8760   -2.6454    4.1444 O   0  0  0  0  0  0
   -5.8064    3.7467    5.4102 C   0  0  0  0  0  0
   -1.5385   -1.2596    5.7761 O   0  5  0  0  0  0
   -1.7388   -0.5237    3.3714 O   0  5  0  0  0  0
   -8.1337    2.6642    6.4801 H   0  0  0  0  0  0
   -8.8797    2.1590    4.9650 H   0  0  0  0  0  0
   -8.5905    3.8636    5.2813 H   0  0  0  0  0  0
   -6.4187    4.4470    1.1534 H   0  0  0  0  0  0
   -4.6132    3.8020   -0.4543 H   0  0  0  0  0  0
   -2.6410    2.4699   -0.7225 H   0  0  0  0  0  0
   -1.8283   -2.7377    0.4725 H   0  0  0  0  0  0
    1.9774   -0.6574    0.0223 H   0  0  0  0  0  0
    0.8167    2.0807   -1.9683 H   0  0  0  0  0  0
    3.5921    0.7630    1.0059 H   0  0  0  0  0  0
    6.5609    2.4137    2.2676 H   0  0  0  0  0  0
    5.8850    1.0845    1.3339 H   0  0  0  0  0  0
    4.9093    1.8952    2.5834 H   0  0  0  0  0  0
    5.8579    5.6727   -2.0786 H   0  0  0  0  0  0
    4.8825    4.4990   -2.9618 H   0  0  0  0  0  0
    6.0626    3.9506   -1.7582 H   0  0  0  0  0  0
    0.7855    5.1424   -3.8942 H   0  0  0  0  0  0
    0.0385    4.1935   -2.6148 H   0  0  0  0  0  0
    0.9966    3.3962   -3.8858 H   0  0  0  0  0  0
   -5.5167   -1.2040    4.3575 H   0  0  0  0  0  0
   -4.4895   -0.8539    3.0197 H   0  0  0  0  0  0
   -5.6755    3.5316    6.4715 H   0  0  0  0  0  0
   -6.1693    4.7711    5.3239 H   0  0  0  0  0  0
   -4.8206    3.7093    4.9446 H   0  0  0  0  0  0
  1  2  1  0  0  0
  1 41  1  0  0  0
  1 42  1  0  0  0
  1 43  1  0  0  0
  2  3  1  0  0  0
  2 33  1  0  0  0
  2 38  1  0  0  0
  3  4  2  0  0  0
  3  5  1  0  0  0
  5  6  1  0  0  0
  5 34  1  0  0  0
  6  7  1  0  0  0
  6 11  2  0  0  0
  7  8  2  0  0  0
  7 33  1  0  0  0
  8  9  1  0  0  0
  8 44  1  0  0  0
  9 10  2  0  0  0
  9 45  1  0  0  0
 10 11  1  0  0  0
 10 12  1  0  0  0
 12 13  1  0  0  0
 12 46  1  0  0  0
 13 14  1  0  0  0
 13 18  2  0  0  0
 14 15  2  0  0  0
 14 32  1  0  0  0
 15 16  1  0  0  0
 15 47  1  0  0  0
 16 17  2  0  0  0
 17 18  1  0  0  0
 17 19  1  0  0  0
 19 20  1  0  0  0
 19 48  1  0  0  0
 20 21  1  0  0  0
 20 25  2  0  0  0
 21 22  2  0  0  0
 21 49  1  0  0  0
 22 23  1  0  0  0
 22 30  1  0  0  0
 23 24  2  0  0  0
 23 28  1  0  0  0
 24 25  1  0  0  0
 24 26  1  0  0  0
 25 50  1  0  0  0
 26 27  1  0  0  0
 27 51  1  0  0  0
 27 52  1  0  0  0
 27 53  1  0  0  0
 28 29  1  0  0  0
 29 54  1  0  0  0
 29 55  1  0  0  0
 29 56  1  0  0  0
 30 31  1  0  0  0
 31 57  1  0  0  0
 31 58  1  0  0  0
 31 59  1  0  0  0
 34 35  1  0  0  0
 34 60  1  0  0  0
 34 61  1  0  0  0
 35 36  1  0  0  0
 36 37  2  0  0  0
 36 39  1  0  0  0
 36 40  1  0  0  0
 38 62  1  0  0  0
 38 63  1  0  0  0
 38 64  1  0  0  0
M  CHG  2  39  -1  40  -1
M  END
> <s_m_entry_id>
55

> <i_f3d_flags>
0

> <r_lp_tautomer_probability>
0.999999622918466

> <r_epik_Ionization_Penalty>
  0.0741

> <r_epik_State_Penalty>
  0.0636

> <i_epik_Tot_Q>
-2

> <s_pdb_PDB_TITLE>
Fostamatinib

> <s_m_Source_Path>
/media/4tb_disk1/SijieChen/TKI/pharmacophore_hypothesis-2/ligprep57_mae/inactive

> <s_m_Source_File>
Fostamatinib.mae

> <i_m_Source_File_Index>
1

$$$$
Binimetinib
                    3D
 Structure written by MMmdl.
 42 44  0  0  1  0            999 V2000
   -2.8473    3.7895   -0.2180 C   0  0  0  0  0  0
   -3.0892    2.3770   -0.0110 N   0  0  0  0  0  0
   -4.2612    1.7855    0.2884 C   0  0  0  0  0  0
   -4.2540    0.4637    0.4326 N   0  0  0  0  0  0
   -2.9216    0.1631    0.2010 C   0  0  0  0  0  0
   -2.1695    1.3378   -0.0831 C   0  0  0  0  0  0
   -0.7952    1.2806   -0.3636 C   0  0  0  0  0  0
   -0.1229    0.0367   -0.3565 C   0  0  0  0  0  0
   -0.8528   -1.1518   -0.0564 C   0  0  0  0  0  0
   -2.2468   -1.0772    0.2019 C   0  0  0  0  0  0
   -2.9612   -2.2042    0.4418 F   0  0  0  0  0  0
   -0.2082   -2.4012   -0.0371 N   0  0  0  0  0  0
   -0.3566   -3.4444    0.8891 C   0  0  0  0  0  0
   -0.0518   -4.7540    0.4626 C   0  0  0  0  0  0
   -0.1718   -5.8419    1.3482 C   0  0  0  0  0  0
   -0.5882   -5.6258    2.6748 C   0  0  0  0  0  0
   -0.8753   -4.3206    3.1159 C   0  0  0  0  0  0
   -0.7545   -3.2299    2.2327 C   0  0  0  0  0  0
   -0.9996   -1.9815    2.6993 F   0  0  0  0  0  0
   -0.7513   -7.0946    3.8735 Br  0  0  0  0  0  0
    1.3472    0.0108   -0.6872 C   0  0  0  0  0  0
    1.8208   -0.8283   -1.4542 O   0  0  0  0  0  0
    2.0847    0.9474   -0.0726 N   0  0  0  0  0  0
    3.4778    0.8709   -0.1824 O   0  0  0  0  0  0
    3.9725    1.8920   -1.0380 C   0  0  0  0  0  0
    3.8788    3.2784   -0.3794 C   0  0  0  0  0  0
    4.4704    4.2464   -1.2182 O   0  0  0  0  0  0
   -1.9456    4.0917    0.3155 H   0  0  0  0  0  0
   -3.6892    4.3756    0.1519 H   0  0  0  0  0  0
   -2.7155    3.9859   -1.2820 H   0  0  0  0  0  0
   -5.1709    2.3561    0.4062 H   0  0  0  0  0  0
   -0.2662    2.1945   -0.5923 H   0  0  0  0  0  0
    0.5294   -2.5237   -0.7168 H   0  0  0  0  0  0
    0.2682   -4.9314   -0.5539 H   0  0  0  0  0  0
    0.0564   -6.8414    1.0089 H   0  0  0  0  0  0
   -1.1812   -4.1522    4.1378 H   0  0  0  0  0  0
    1.8093    1.5906    0.6554 H   0  0  0  0  0  0
    5.0175    1.6624   -1.2487 H   0  0  0  0  0  0
    3.4521    1.8753   -1.9976 H   0  0  0  0  0  0
    2.8420    3.5597   -0.1950 H   0  0  0  0  0  0
    4.3950    3.2793    0.5810 H   0  0  0  0  0  0
    4.4221    5.0870   -0.7889 H   0  0  0  0  0  0
  1  2  1  0  0  0
  1 28  1  0  0  0
  1 29  1  0  0  0
  1 30  1  0  0  0
  2  3  1  0  0  0
  2  6  1  0  0  0
  3  4  2  0  0  0
  3 31  1  0  0  0
  4  5  1  0  0  0
  5  6  1  0  0  0
  5 10  2  0  0  0
  6  7  2  0  0  0
  7  8  1  0  0  0
  7 32  1  0  0  0
  8  9  2  0  0  0
  8 21  1  0  0  0
  9 10  1  0  0  0
  9 12  1  0  0  0
 10 11  1  0  0  0
 12 13  1  0  0  0
 12 33  1  0  0  0
 13 14  1  0  0  0
 13 18  2  0  0  0
 14 15  2  0  0  0
 14 34  1  0  0  0
 15 16  1  0  0  0
 15 35  1  0  0  0
 16 17  2  0  0  0
 16 20  1  0  0  0
 17 18  1  0  0  0
 17 36  1  0  0  0
 18 19  1  0  0  0
 21 22  2  0  0  0
 21 23  1  0  0  0
 23 24  1  0  0  0
 23 37  1  0  0  0
 24 25  1  0  0  0
 25 26  1  0  0  0
 25 38  1  0  0  0
 25 39  1  0  0  0
 26 27  1  0  0  0
 26 40  1  0  0  0
 26 41  1  0  0  0
 27 42  1  0  0  0
M  END
> <s_m_entry_id>
56

> <i_f3d_flags>
0

> <r_epik_Ionization_Penalty>
  0.0113

> <r_epik_State_Penalty>
  0.0087

> <i_epik_Tot_Q>
0

> <s_pdb_PDB_TITLE>
Binimetinib

> <s_m_Source_Path>
/media/4tb_disk1/SijieChen/TKI/pharmacophore_hypothesis-2/ligprep57_mae/inactive

> <s_m_Source_File>
Binimetinib.mae

> <i_m_Source_File_Index>
1

$$$$
Alectinib
                    3D
 Structure written by MMmdl.
 71 76  0  0  1  0            999 V2000
   -0.5909    1.0424    0.1105 C   0  0  0  0  0  0
    0.1037   -0.3227    0.0411 C   0  0  0  0  0  0
    1.6223   -0.2035    0.0470 C   0  0  0  0  0  0
    2.3129   -0.2456   -1.1799 C   0  0  0  0  0  0
    3.7217   -0.1384   -1.2388 C   0  0  0  0  0  0
    4.4609    0.0133   -0.0290 C   0  0  0  0  0  0
    3.7560    0.0574    1.1966 C   0  0  0  0  0  0
    2.3492   -0.0427    1.2489 C   0  0  0  0  0  0
    1.6792    0.0106    2.4814 N   0  0  0  0  0  0
    1.7654   -1.2324    3.2404 C   0  0  0  0  0  0
    0.7846   -1.2099    4.4253 C   0  0  0  0  0  0
    1.0073    0.0413    5.3019 C   0  0  0  0  0  0
    0.9309    1.3163    4.4290 C   0  0  0  0  0  0
    1.9181    1.2261    3.2541 C   0  0  0  0  0  0
    0.6026    0.8974    7.6042 C   0  0  0  0  0  0
   -0.2935    0.7240    8.8426 C   0  0  0  0  0  0
   -1.6393    1.0427    8.5099 O   0  0  0  0  0  0
   -2.1561    0.1890    7.4962 C   0  0  0  0  0  0
   -1.3260    0.3555    6.2125 C   0  0  0  0  0  0
    5.9984    0.1294   -0.0066 C   0  0  0  0  0  0
    6.5345    0.0770   -1.4065 C   0  0  0  0  0  0
    5.8280   -0.0658   -2.5693 C   0  0  0  0  0  0
    6.7845   -0.0608   -3.6464 C   0  0  0  0  0  0
    6.7081   -0.1678   -5.0563 C   0  0  0  0  0  0
    7.8671   -0.1254   -5.8577 C   0  0  0  0  0  0
    9.1374    0.0267   -5.2659 C   0  0  0  0  0  0
    9.2461    0.1357   -3.8660 C   0  0  0  0  0  0
    8.0828    0.0912   -3.0766 C   0  0  0  0  0  0
    7.8837    0.1698   -1.7131 N   0  0  0  0  0  0
   10.3298    0.0709   -6.0956 C   0  0  0  0  0  0
   11.2793    0.1062   -6.7558 N   0  0  0  0  0  0
    4.3818   -0.1899   -2.5811 C   0  0  0  0  0  0
    3.7364   -0.3266   -3.6206 O   0  0  0  0  0  0
    6.5910   -1.0396    0.8092 C   0  0  0  0  0  0
    6.4071    1.4684    0.6452 C   0  0  0  0  0  0
    0.1032    0.0573    6.4883 N   0  3  0  0  0  0
   -1.6747    0.9272    0.0942 H   0  0  0  0  0  0
   -0.3094    1.6693   -0.7360 H   0  0  0  0  0  0
   -0.3283    1.5757    1.0245 H   0  0  0  0  0  0
   -0.2221   -0.9507    0.8706 H   0  0  0  0  0  0
   -0.2128   -0.8435   -0.8633 H   0  0  0  0  0  0
    1.7395   -0.3607   -2.0888 H   0  0  0  0  0  0
    4.3038    0.1664    2.1204 H   0  0  0  0  0  0
    1.5426   -2.0802    2.5910 H   0  0  0  0  0  0
    2.7864   -1.3657    3.6011 H   0  0  0  0  0  0
   -0.2326   -1.2288    4.0344 H   0  0  0  0  0  0
    0.9067   -2.1158    5.0200 H   0  0  0  0  0  0
    2.0264   -0.0349    5.6852 H   0  0  0  0  0  0
   -0.0733    1.4463    4.0246 H   0  0  0  0  0  0
    1.1504    2.2054    5.0199 H   0  0  0  0  0  0
    2.9410    1.2287    3.6324 H   0  0  0  0  0  0
    1.8112    2.1001    2.6099 H   0  0  0  0  0  0
    0.6191    1.9457    7.3035 H   0  0  0  0  0  0
    1.6268    0.6188    7.8547 H   0  0  0  0  0  0
   -0.2340   -0.2955    9.2270 H   0  0  0  0  0  0
    0.0384    1.3856    9.6429 H   0  0  0  0  0  0
   -2.1480   -0.8481    7.8359 H   0  0  0  0  0  0
   -3.1966    0.4547    7.3081 H   0  0  0  0  0  0
   -1.7172   -0.3068    5.4412 H   0  0  0  0  0  0
   -1.4360    1.3774    5.8483 H   0  0  0  0  0  0
    5.7438   -0.2842   -5.5285 H   0  0  0  0  0  0
    7.7731   -0.2105   -6.9310 H   0  0  0  0  0  0
   10.2121    0.2526   -3.3961 H   0  0  0  0  0  0
    8.6016    0.2809   -1.0117 H   0  0  0  0  0  0
    6.3145   -2.0010    0.3748 H   0  0  0  0  0  0
    6.2483   -1.0365    1.8439 H   0  0  0  0  0  0
    7.6802   -0.9952    0.8371 H   0  0  0  0  0  0
    5.9952    2.3151    0.0946 H   0  0  0  0  0  0
    7.4908    1.5886    0.6657 H   0  0  0  0  0  0
    6.0626    1.5489    1.6761 H   0  0  0  0  0  0
    0.1227   -0.8882    6.8431 H   0  0  0  0  0  0
  1  2  1  0  0  0
  1 37  1  0  0  0
  1 38  1  0  0  0
  1 39  1  0  0  0
  2  3  1  0  0  0
  2 40  1  0  0  0
  2 41  1  0  0  0
  3  4  1  0  0  0
  3  8  2  0  0  0
  4  5  2  0  0  0
  4 42  1  0  0  0
  5  6  1  0  0  0
  5 32  1  0  0  0
  6  7  2  0  0  0
  6 20  1  0  0  0
  7  8  1  0  0  0
  7 43  1  0  0  0
  8  9  1  0  0  0
  9 10  1  0  0  0
  9 14  1  0  0  0
 10 11  1  0  0  0
 10 44  1  0  0  0
 10 45  1  0  0  0
 11 12  1  0  0  0
 11 46  1  0  0  0
 11 47  1  0  0  0
 12 13  1  0  0  0
 12 48  1  0  0  0
 12 36  1  0  0  0
 13 14  1  0  0  0
 13 49  1  0  0  0
 13 50  1  0  0  0
 14 51  1  0  0  0
 14 52  1  0  0  0
 15 16  1  0  0  0
 15 53  1  0  0  0
 15 54  1  0  0  0
 15 36  1  0  0  0
 16 17  1  0  0  0
 16 55  1  0  0  0
 16 56  1  0  0  0
 17 18  1  0  0  0
 18 19  1  0  0  0
 18 57  1  0  0  0
 18 58  1  0  0  0
 19 59  1  0  0  0
 19 60  1  0  0  0
 19 36  1  0  0  0
 20 21  1  0  0  0
 20 34  1  0  0  0
 20 35  1  0  0  0
 21 22  2  0  0  0
 21 29  1  0  0  0
 22 23  1  0  0  0
 22 32  1  0  0  0
 23 24  1  0  0  0
 23 28  2  0  0  0
 24 25  2  0  0  0
 24 61  1  0  0  0
 25 26  1  0  0  0
 25 62  1  0  0  0
 26 27  2  0  0  0
 26 30  1  0  0  0
 27 28  1  0  0  0
 27 63  1  0  0  0
 28 29  1  0  0  0
 29 64  1  0  0  0
 30 31  3  0  0  0
 32 33  2  0  0  0
 34 65  1  0  0  0
 34 66  1  0  0  0
 34 67  1  0  0  0
 35 68  1  0  0  0
 35 69  1  0  0  0
 35 70  1  0  0  0
 36 71  1  0  0  0
M  CHG  1  36   1
M  END
> <s_m_entry_id>
57

> <i_f3d_flags>
0

> <r_epik_Ionization_Penalty>
  0.1628

> <r_epik_State_Penalty>
  0.1521

> <i_epik_Tot_Q>
1

> <s_pdb_PDB_TITLE>
Alectinib

> <s_m_Source_Path>
/media/4tb_disk1/SijieChen/TKI/pharmacophore_hypothesis-2/ligprep57_mae/inactive

> <s_m_Source_File>
Alectinib.mae

> <i_m_Source_File_Index>
1

$$$$
Acalabrutinib
                    3D
 Structure written by MMmdl.
 58 62  0  0  1  0            999 V2000
   -1.8818    6.0328   -0.6941 C   0  0  0  0  0  0
   -1.4406    4.6376   -0.8325 C   0  0  0  0  0  0
   -1.0686    3.4786   -0.9322 C   0  0  0  0  0  0
   -0.5761    2.1175   -1.0169 C   0  0  0  0  0  0
   -0.1876    1.6794   -2.0996 O   0  0  0  0  0  0
   -0.5667    1.3918    0.1277 N   0  0  0  0  0  0
   -1.0823    1.8131    1.4370 C   0  0  0  0  0  0
   -0.7662    0.6755    2.4086 C   0  0  0  0  0  0
   -0.6258   -0.5505    1.5178 C   0  0  0  0  0  0
   -0.1001    0.0012    0.1897 C   0  0  2  0  0  0
    1.4034   -0.0251    0.1110 C   0  0  0  0  0  0
    3.5574    0.4512    0.3896 C   0  0  0  0  0  0
    3.4782   -0.6677   -0.4120 C   0  0  0  0  0  0
    2.1234   -0.9565   -0.5902 N   0  0  0  0  0  0
    1.7450   -2.0506   -1.3790 C   0  0  0  0  0  0
    2.8422   -2.7733   -1.9218 C   0  0  0  0  0  0
    4.1590   -2.5193   -1.7476 N   0  0  0  0  0  0
    4.4945   -1.4659   -0.9870 C   0  0  0  0  0  0
    5.8565   -1.2438   -0.7959 N   0  0  0  0  0  0
    4.7349    1.1838    0.8500 C   0  0  0  0  0  0
    5.5976    1.8118   -0.0714 C   0  0  0  0  0  0
    6.7208    2.5304    0.3814 C   0  0  0  0  0  0
    6.9861    2.6477    1.7640 C   0  0  0  0  0  0
    6.1194    2.0147    2.6855 C   0  0  0  0  0  0
    4.9986    1.2936    2.2299 C   0  0  0  0  0  0
    8.1953    3.4058    2.2341 C   0  0  0  0  0  0
    9.2181    3.4312    1.5485 O   0  0  0  0  0  0
    8.0271    4.0759    3.3907 N   0  0  0  0  0  0
    8.9696    4.8734    4.0919 C   0  0  0  0  0  0
    8.4840    5.4679    5.2785 C   0  0  0  0  0  0
    9.3408    6.2786    6.0482 C   0  0  0  0  0  0
   10.6632    6.4734    5.6114 C   0  0  0  0  0  0
   11.0671    5.8445    4.4193 C   0  0  0  0  0  0
   10.2474    5.0673    3.6799 N   0  0  0  0  0  0
    2.2520    0.8246    0.7172 N   0  0  0  0  0  0
   -1.1657    6.6953   -1.1804 H   0  0  0  0  0  0
   -1.9511    6.2942    0.3618 H   0  0  0  0  0  0
   -2.8594    6.1593   -1.1593 H   0  0  0  0  0  0
   -0.6304    2.7470    1.7745 H   0  0  0  0  0  0
   -2.1609    1.9609    1.3664 H   0  0  0  0  0  0
    0.1833    0.8737    2.9076 H   0  0  0  0  0  0
   -1.5281    0.5539    3.1790 H   0  0  0  0  0  0
    0.0046   -1.3312    1.9456 H   0  0  0  0  0  0
   -1.6161   -0.9795    1.3592 H   0  0  0  0  0  0
   -0.5200   -0.5715   -0.6379 H   0  0  0  0  0  0
    0.7032   -2.2885   -1.5316 H   0  0  0  0  0  0
    2.6333   -3.6316   -2.5426 H   0  0  0  0  0  0
    6.1940   -0.4853   -0.2214 H   0  0  0  0  0  0
    6.5497   -1.8507   -1.2094 H   0  0  0  0  0  0
    5.3997    1.7404   -1.1309 H   0  0  0  0  0  0
    7.3721    2.9989   -0.3424 H   0  0  0  0  0  0
    6.3047    2.0725    3.7483 H   0  0  0  0  0  0
    4.3405    0.8199    2.9437 H   0  0  0  0  0  0
    7.1177    3.9968    3.8215 H   0  0  0  0  0  0
    7.4649    5.3079    5.5996 H   0  0  0  0  0  0
    8.9885    6.7426    6.9575 H   0  0  0  0  0  0
   11.3494    7.0886    6.1745 H   0  0  0  0  0  0
   12.0741    5.9681    4.0491 H   0  0  0  0  0  0
  1  2  1  0  0  0
  1 36  1  0  0  0
  1 37  1  0  0  0
  1 38  1  0  0  0
  2  3  3  0  0  0
  3  4  1  0  0  0
  4  5  2  0  0  0
  4  6  1  0  0  0
  6  7  1  0  0  0
  6 10  1  0  0  0
  7  8  1  0  0  0
  7 39  1  0  0  0
  7 40  1  0  0  0
  8  9  1  0  0  0
  8 41  1  0  0  0
  8 42  1  0  0  0
  9 10  1  0  0  0
  9 43  1  0  0  0
  9 44  1  0  0  0
 10 11  1  0  0  0
 10 45  1  0  0  0
 11 14  1  0  0  0
 11 35  2  0  0  0
 12 13  2  0  0  0
 12 20  1  0  0  0
 12 35  1  0  0  0
 13 14  1  0  0  0
 13 18  1  0  0  0
 14 15  1  0  0  0
 15 16  2  0  0  0
 15 46  1  0  0  0
 16 17  1  0  0  0
 16 47  1  0  0  0
 17 18  2  0  0  0
 18 19  1  0  0  0
 19 48  1  0  0  0
 19 49  1  0  0  0
 20 21  1  0  0  0
 20 25  2  0  0  0
 21 22  2  0  0  0
 21 50  1  0  0  0
 22 23  1  0  0  0
 22 51  1  0  0  0
 23 24  2  0  0  0
 23 26  1  0  0  0
 24 25  1  0  0  0
 24 52  1  0  0  0
 25 53  1  0  0  0
 26 27  2  0  0  0
 26 28  1  0  0  0
 28 29  1  0  0  0
 28 54  1  0  0  0
 29 30  1  0  0  0
 29 34  2  0  0  0
 30 31  2  0  0  0
 30 55  1  0  0  0
 31 32  1  0  0  0
 31 56  1  0  0  0
 32 33  2  0  0  0
 32 57  1  0  0  0
 33 34  1  0  0  0
 33 58  1  0  0  0
M  END
> <s_m_entry_id>
58

> <i_f3d_flags>
0

> <r_epik_Ionization_Penalty>
  0.0195

> <r_epik_State_Penalty>
  0.0141

> <i_epik_Tot_Q>
0

> <s_pdb_PDB_TITLE>
Acalabrutinib

> <s_m_Source_Path>
/media/4tb_disk1/SijieChen/TKI/pharmacophore_hypothesis-2/ligprep57_mae/inactive

> <s_m_Source_File>
Acalabrutinib.mae

> <i_m_Source_File_Index>
1

$$$$
